2019-05-28 13:57:26,590  INFO Gbl:63 JVM: 1.8.0_211; Oracle Corporation; mixed mode; 64-bit
2019-05-28 13:57:26,590  INFO Gbl:67 OS: Windows Server 2016; 10.0; amd64
2019-05-28 13:57:26,590  INFO Gbl:70 CPU cores: 10
2019-05-28 13:57:26,590  INFO Gbl:71 max. Memory: 7282.0MB (7635730432B)
2019-05-28 13:57:26,591  INFO Gbl:109 MATSim-Build: r1ce39959a4bd59ed5c70e0fdcf6496a216585696 (2019-04-05 11:03:02)
2019-05-28 13:57:26,592  INFO ControlerListenerManagerImpl:107 calling notifyStartup on org.matsim.counts.CountsControlerListener
2019-05-28 13:57:26,592  INFO ControlerListenerManagerImpl:107 calling notifyStartup on org.matsim.analysis.ModeStatsControlerListener
2019-05-28 13:57:26,593  INFO ControlerListenerManagerImpl:107 calling notifyStartup on org.matsim.analysis.ScoreStatsControlerListener
2019-05-28 13:57:26,593  INFO ControlerListenerManagerImpl:110 all ControlerStartupListeners called.
2019-05-28 13:57:26,594  INFO ControlerUtils:58 config dump before iterations start
2019-05-28 13:57:26,602  INFO ControlerUtils:62 

<?xml version="1.0" encoding="UTF-8"?>
<!DOCTYPE config SYSTEM "http://www.matsim.org/files/dtd/config_v2.dtd">
<config>
	<module name="JDEQSim" >
		<param name="carSize" value="7.5" />
		<param name="endTime" value="undefined" />
		<param name="flowCapacityFactor" value="1.0" />
		<param name="gapTravelSpeed" value="15.0" />
		<param name="minimumInFlowCapacity" value="1800.0" />
		<param name="squeezeTime" value="1800.0" />
		<param name="storageCapacityFactor" value="1.0" />
	</module>
	<module name="TimeAllocationMutator" >
		<!-- Default:true; Defines whether time mutation changes an activity's duration. -->
		<param name="mutationAffectsDuration" value="false" />
		<!-- Default:1800.0; Defines how many seconds a time mutation can maximally shift a time. -->
		<param name="mutationRange" value="7200.0" />
		<!-- false; Use individual settings for each subpopulation. If enabled but no settings are found, regular settings are uses as fallback. -->
		<param name="useIndividualSettingsForSubpopulations" value="false" />
	</module>
	<module name="changeMode" >
		<!-- Defines whether car availability is considered be considered or not. An agent has no car only if it has no license, or never access to a car. Default: true -->
		<param name="ignoreCarAvailability" value="true" />
		<!-- Defines the mode switch behavior. Possible values [fromAllModesToSpecifiedModes, fromSpecifiedModesToSpecifiedModes] Default: fromSpecifiedModesToSpecifiedModes. -->
		<param name="modeSwitchBehavior" value="fromSpecifiedModesToSpecifiedModes" />
		<!-- Defines all the modes available, including chain-based modes, seperated by commas -->
		<param name="modes" value="car,pt" />
	</module>
	<module name="controler" >
		<!-- Sets whether graphs showing some analyses should automatically be generated during the simulation. The generation of graphs usually takes a small amount of time that does not have any weight in big simulations, but add a significant overhead in smaller runs or in test cases where the graphical output is not even requested. -->
		<param name="createGraphs" value="true" />
		<!-- true if at the end of a run, plans, network, config etc should be dumped to a file -->
		<param name="dumpDataAtEnd" value="true" />
		<!-- Default=false. If enabled, the router takes travel times needed for turning moves into account. Cannot be used if the (Fast)AStarLandmarks routing or TravelTimeCalculator.separateModes is enabled. -->
		<param name="enableLinkToLinkRouting" value="false" />
		<!-- Default=xml; Specifies the file format for writing events. Currently supported: xml.
		Multiple values can be specified separated by commas (','). -->
		<param name="eventsFileFormat" value="xml" />
		<!-- Default=0;  -->
		<param name="firstIteration" value="0" />
		<!-- Default=1000;  -->
		<param name="lastIteration" value="0" />
		<!-- Defines which mobility simulation will be used. Currently supported: qsim JDEQSim 
		Depending on the chosen mobsim, you'll have to add additional config modules to configure the corresponding mobsim.
		For 'qsim', add a module 'qsim' to the config. -->
		<param name="mobsim" value="qsim" />
		<param name="outputDirectory" value="./output/perth_base_2011/" />
		<!-- Possible values: failIfDirectoryExists, overwriteExistingFiles, deleteDirectoryIfExists -->
		<param name="overwriteFiles" value="deleteDirectoryIfExists" />
		<!-- The type of routing (least cost path) algorithm used, may have the values: Dijkstra, FastDijkstra, AStarLandmarks or FastAStarLandmarks -->
		<param name="routingAlgorithmType" value="AStarLandmarks" />
		<!-- An identifier for the current run which is used as prefix for output files and mentioned in output xml files etc. -->
		<param name="runId" value="perth_base_2011" />
		<!-- Comma-separated list of visualizer output file formats. `transims', `googleearth', and `otfvis'. -->
		<param name="snapshotFormat" value="" />
		<!-- iterationNumber % writeEventsInterval == 0 defines in which iterations events are written to a file. `0' disables events writing completely. -->
		<param name="writeEventsInterval" value="0" />
		<!-- iterationNumber % writePlansInterval == 0 defines (hopefully) in which iterations plans are written to a file. `0' disables plans writing completely.  Some plans in early iterations are always written -->
		<param name="writePlansInterval" value="0" />
		<!-- iterationNumber % writeSnapshotsInterval == 0 defines in which iterations snapshots are written to a file. `0' disables snapshots writing completely -->
		<param name="writeSnapshotsInterval" value="1" />
	</module>
	<module name="counts" >
		<!-- Transport modes that will be respected for the counts comparison. 'car' is default, which includes also bussed from the pt simulation module. Use this parameter in combination with 'filterModes' = true! -->
		<param name="analyzedModes" value="car" />
		<!-- Specifies over how many iterations the link volumes should be averaged that are used for the counts comparison. Use 1 or 0 to only use the link volumes of a single iteration. This values cannot be larger than the value specified for writeCountsInterval -->
		<param name="averageCountsOverIterations" value="5" />
		<!-- factor by which to re-scale the simulated values.  necessary when simulation runs with something different from 100%.  needs to be adapted manually -->
		<param name="countsScaleFactor" value="1.0" />
		<!-- distance to distanceFilterCenterNode to include counting stations. The unit of distance is the Euclidean distance implied by the coordinate system -->
		<param name="distanceFilter" value="null" />
		<!-- node id for center node of distance filter -->
		<param name="distanceFilterCenterNode" value="null" />
		<!-- If true, link counts from legs performed on modes not included in the 'analyzedModes' parameter are ignored. -->
		<param name="filterModes" value="false" />
		<!-- The Coordinates Reference System in which the coordinates are expressed in the input file. At import, the coordinates will be converted to the coordinate system defined in "global", and willbe converted back at export. If not specified, no conversion happens. -->
		<param name="inputCRS" value="null" />
		<!-- input file name to counts package -->
		<param name="inputCountsFile" value="null" />
		<!-- possible values: `html', `kml', `txt', `all' -->
		<param name="outputformat" value="txt" />
		<!-- Specifies how often the counts comparison should be calculated and written. -->
		<param name="writeCountsInterval" value="10" />
	</module>
	<module name="facilities" >
		<!-- This defines how facilities should be created. Possible values: none fromFile setInScenario onePerActivityLinkInPlansFile onePerActivityLocationInPlansFile  -->
		<param name="facilitiesSource" value="none" />
		<!-- A prefix to be used for auto-generated IDs. -->
		<param name="idPrefix" value="autogen_" />
		<!-- The Coordinates Reference System in which the coordinates are expressed in the input file. At import, the coordinates will be converted to the coordinate system defined in "global", and willbe converted back at export. If not specified, no conversion happens. -->
		<param name="inputCRS" value="null" />
		<param name="inputFacilitiesFile" value="null" />
		<param name="inputFacilityAttributesFile" value="null" />
	</module>
	<module name="global" >
		<param name="coordinateSystem" value="Atlantis" />
		<param name="insistingOnDeprecatedConfigVersion" value="true" />
		<!-- "global" number of threads.  This number is used, e.g., for replanning, but NOT in the mobsim.  This can typically be set to as many cores as you have available, or possibly even slightly more. -->
		<param name="numberOfThreads" value="1" />
		<param name="randomSeed" value="4711" />
	</module>
	<module name="households" >
		<param name="inputFile" value="null" />
		<param name="inputHouseholdAttributesFile" value="null" />
	</module>
	<module name="linkStats" >
		<!-- Specifies over how many iterations the link volumes should be averaged that are used for the link statistics. Use 1 or 0 to only use the link volumes of a single iteration. This values cannot be larger than the value specified for writeLinkStatsInterval -->
		<param name="averageLinkStatsOverIterations" value="5" />
		<!-- Specifies how often the link stats should be calculated and written. Use 0 to disable the generation of link stats. -->
		<param name="writeLinkStatsInterval" value="10" />
	</module>
	<module name="network" >
		<!-- The Coordinates Reference System in which the coordinates are expressed in the input file. At import, the coordinates will be converted to the coordinate system defined in "global", and willbe converted back at export. If not specified, no conversion happens. -->
		<param name="inputCRS" value="null" />
		<param name="inputChangeEventsFile" value="null" />
		<param name="inputNetworkFile" value="network.xml" />
		<param name="laneDefinitionsFile" value="null" />
		<param name="timeVariantNetwork" value="false" />
	</module>
	<module name="parallelEventHandling" >
		<!-- Estimated number of events during mobsim run. An optional optimization hint for the framework. -->
		<param name="estimatedNumberOfEvents" value="null" />
		<!-- Number of threads for parallel events handler. _null_ means the framework decides by itself. 0 is currently not possible. -->
		<param name="numberOfThreads" value="1" />
		<!-- If enabled, each event handler is assigned to its own thread. Note that enabling this feature disabled the numberOfThreads option! This feature is still experimental! -->
		<param name="oneThreadPerHandler" value="false" />
		<!-- If enabled, it is ensured that all events that are created during a time step of the mobility simulation are processed before the next time step is simulated. E.g. neccessary when within-day replanning is used. -->
		<param name="synchronizeOnSimSteps" value="true" />
	</module>
	<module name="planCalcScore" >
		<!-- logit model scale parameter. default: 1.  Has name and default value for historical reasons (see Bryan Raney's phd thesis). -->
		<param name="BrainExpBeta" value="1.0" />
		<param name="PathSizeLogitBeta" value="1.0" />
		<!-- fraction of iterations at which MSA score averaging is started. The matsim theory department suggests to use this together with switching off choice set innovation (where a similar switch exists), but it has not been tested yet. -->
		<param name="fractionOfIterationsToStartScoreMSA" value="null" />
		<!-- new_score = (1-learningRate)*old_score + learningRate * score_from_mobsim.  learning rates close to zero emulate score averaging, but slow down initial convergence -->
		<param name="learningRate" value="1.0" />
		<!-- There used to be a plateau between duration=0 and duration=zeroUtilityDuration. This caused durations to evolve to zero once they were below zeroUtilityDuration, causing problems.  Only use this switch if you need to be backwards compatible with some old results.  (changed nov'13) -->
		<param name="usingOldScoringBelowZeroUtilityDuration" value="false" />
		<!-- write a plans file in each iteration directory which contains what each agent actually did, and the score it received. -->
		<param name="writeExperiencedPlans" value="false" />
		<parameterset type="scoringParameters" >
			<param name="earlyDeparture" value="-0.0" />
			<param name="lateArrival" value="-18.0" />
			<param name="marginalUtilityOfMoney" value="1.0" />
			<param name="performing" value="6.0" />
			<param name="subpopulation" value="null" />
			<param name="utilityOfLineSwitch" value="-1.0" />
			<param name="waiting" value="-0.0" />
			<param name="waitingPt" value="-6.0" />
			<parameterset type="activityParams" >
				<param name="activityType" value="dummy" />
				<param name="closingTime" value="undefined" />
				<param name="earliestEndTime" value="undefined" />
				<param name="latestStartTime" value="undefined" />
				<param name="minimalDuration" value="undefined" />
				<param name="openingTime" value="undefined" />
				<param name="priority" value="1.0" />
				<param name="scoringThisActivityAtAll" value="true" />
				<!-- typical duration of activity.  needs to be defined and non-zero.  in sec. -->
				<param name="typicalDuration" value="02:00:00" />
				<!-- method to compute score at typical duration.  Options: | uniform | relative | Use uniform for backwards compatibility (all activities same score; higher proba to drop long acts). -->
				<param name="typicalDurationScoreComputation" value="relative" />
			</parameterset>
			<parameterset type="activityParams" >
				<param name="activityType" value="car interaction" />
				<param name="closingTime" value="undefined" />
				<param name="earliestEndTime" value="undefined" />
				<param name="latestStartTime" value="undefined" />
				<param name="minimalDuration" value="undefined" />
				<param name="openingTime" value="undefined" />
				<param name="priority" value="1.0" />
				<param name="scoringThisActivityAtAll" value="false" />
				<param name="typicalDuration" value="undefined" />
				<param name="typicalDurationScoreComputation" value="relative" />
			</parameterset>
			<parameterset type="activityParams" >
				<param name="activityType" value="pt interaction" />
				<param name="closingTime" value="undefined" />
				<param name="earliestEndTime" value="undefined" />
				<param name="latestStartTime" value="undefined" />
				<param name="minimalDuration" value="undefined" />
				<param name="openingTime" value="undefined" />
				<param name="priority" value="1.0" />
				<param name="scoringThisActivityAtAll" value="false" />
				<param name="typicalDuration" value="undefined" />
				<param name="typicalDurationScoreComputation" value="relative" />
			</parameterset>
			<parameterset type="activityParams" >
				<param name="activityType" value="bike interaction" />
				<param name="closingTime" value="undefined" />
				<param name="earliestEndTime" value="undefined" />
				<param name="latestStartTime" value="undefined" />
				<param name="minimalDuration" value="undefined" />
				<param name="openingTime" value="undefined" />
				<param name="priority" value="1.0" />
				<param name="scoringThisActivityAtAll" value="false" />
				<param name="typicalDuration" value="undefined" />
				<param name="typicalDurationScoreComputation" value="relative" />
			</parameterset>
			<parameterset type="activityParams" >
				<param name="activityType" value="other interaction" />
				<param name="closingTime" value="undefined" />
				<param name="earliestEndTime" value="undefined" />
				<param name="latestStartTime" value="undefined" />
				<param name="minimalDuration" value="undefined" />
				<param name="openingTime" value="undefined" />
				<param name="priority" value="1.0" />
				<param name="scoringThisActivityAtAll" value="false" />
				<param name="typicalDuration" value="undefined" />
				<param name="typicalDurationScoreComputation" value="relative" />
			</parameterset>
			<parameterset type="activityParams" >
				<param name="activityType" value="walk interaction" />
				<param name="closingTime" value="undefined" />
				<param name="earliestEndTime" value="undefined" />
				<param name="latestStartTime" value="undefined" />
				<param name="minimalDuration" value="undefined" />
				<param name="openingTime" value="undefined" />
				<param name="priority" value="1.0" />
				<param name="scoringThisActivityAtAll" value="false" />
				<param name="typicalDuration" value="undefined" />
				<param name="typicalDurationScoreComputation" value="relative" />
			</parameterset>
			<parameterset type="activityParams" >
				<param name="activityType" value="h" />
				<param name="closingTime" value="undefined" />
				<param name="earliestEndTime" value="undefined" />
				<param name="latestStartTime" value="undefined" />
				<param name="minimalDuration" value="undefined" />
				<param name="openingTime" value="undefined" />
				<param name="priority" value="1.0" />
				<param name="scoringThisActivityAtAll" value="true" />
				<param name="typicalDuration" value="12:00:00" />
				<param name="typicalDurationScoreComputation" value="relative" />
			</parameterset>
			<parameterset type="activityParams" >
				<param name="activityType" value="w" />
				<param name="closingTime" value="undefined" />
				<param name="earliestEndTime" value="undefined" />
				<param name="latestStartTime" value="undefined" />
				<param name="minimalDuration" value="undefined" />
				<param name="openingTime" value="undefined" />
				<param name="priority" value="1.0" />
				<param name="scoringThisActivityAtAll" value="true" />
				<param name="typicalDuration" value="08:00:00" />
				<param name="typicalDurationScoreComputation" value="relative" />
			</parameterset>
			<parameterset type="activityParams" >
				<param name="activityType" value="home" />
				<param name="closingTime" value="undefined" />
				<param name="earliestEndTime" value="undefined" />
				<param name="latestStartTime" value="undefined" />
				<param name="minimalDuration" value="undefined" />
				<param name="openingTime" value="undefined" />
				<param name="priority" value="1.0" />
				<param name="scoringThisActivityAtAll" value="true" />
				<param name="typicalDuration" value="12:00:00" />
				<param name="typicalDurationScoreComputation" value="relative" />
			</parameterset>
			<parameterset type="activityParams" >
				<param name="activityType" value="work" />
				<param name="closingTime" value="undefined" />
				<param name="earliestEndTime" value="undefined" />
				<param name="latestStartTime" value="undefined" />
				<param name="minimalDuration" value="undefined" />
				<param name="openingTime" value="undefined" />
				<param name="priority" value="1.0" />
				<param name="scoringThisActivityAtAll" value="true" />
				<param name="typicalDuration" value="08:00:00" />
				<param name="typicalDurationScoreComputation" value="relative" />
			</parameterset>
			<parameterset type="modeParams" >
				<!-- [utils] alternative-specific constant.  Normally per trip, but that is probably buggy for multi-leg trips. -->
				<param name="constant" value="0.0" />
				<!-- [money] daily monetary constant. default=0 to be backwards compatible -->
				<param name="dailyMonetaryConstant" value="0.0" />
				<!-- [utils] daily utility constant. default=0 to be backwards compatible -->
				<param name="dailyUtilityConstant" value="0.0" />
				<!-- [utils/m] utility of traveling (e.g. walking or driving) per m, normally negative.  this is on top of the time (dis)utility. -->
				<param name="marginalUtilityOfDistance_util_m" value="0.0" />
				<!-- [utils/hr] additional marginal utility of traveling.  normally negative.  this comes on top of the opportunity cost of time -->
				<param name="marginalUtilityOfTraveling_util_hr" value="-6.0" />
				<param name="mode" value="car" />
				<!-- [unit_of_money/m] conversion of distance into money. Normally negative. -->
				<param name="monetaryDistanceRate" value="0.0" />
			</parameterset>
			<parameterset type="modeParams" >
				<param name="constant" value="0.0" />
				<param name="dailyMonetaryConstant" value="0.0" />
				<param name="dailyUtilityConstant" value="0.0" />
				<param name="marginalUtilityOfDistance_util_m" value="0.0" />
				<param name="marginalUtilityOfTraveling_util_hr" value="-6.0" />
				<param name="mode" value="pt" />
				<param name="monetaryDistanceRate" value="0.0" />
			</parameterset>
			<parameterset type="modeParams" >
				<param name="constant" value="0.0" />
				<param name="dailyMonetaryConstant" value="0.0" />
				<param name="dailyUtilityConstant" value="0.0" />
				<param name="marginalUtilityOfDistance_util_m" value="0.0" />
				<param name="marginalUtilityOfTraveling_util_hr" value="-6.0" />
				<param name="mode" value="walk" />
				<param name="monetaryDistanceRate" value="0.0" />
			</parameterset>
			<parameterset type="modeParams" >
				<param name="constant" value="0.0" />
				<param name="dailyMonetaryConstant" value="0.0" />
				<param name="dailyUtilityConstant" value="0.0" />
				<param name="marginalUtilityOfDistance_util_m" value="0.0" />
				<param name="marginalUtilityOfTraveling_util_hr" value="-6.0" />
				<param name="mode" value="bike" />
				<param name="monetaryDistanceRate" value="0.0" />
			</parameterset>
			<parameterset type="modeParams" >
				<param name="constant" value="0.0" />
				<param name="dailyMonetaryConstant" value="0.0" />
				<param name="dailyUtilityConstant" value="0.0" />
				<param name="marginalUtilityOfDistance_util_m" value="0.0" />
				<param name="marginalUtilityOfTraveling_util_hr" value="-6.0" />
				<param name="mode" value="ride" />
				<param name="monetaryDistanceRate" value="0.0" />
			</parameterset>
			<parameterset type="modeParams" >
				<param name="constant" value="0.0" />
				<param name="dailyMonetaryConstant" value="0.0" />
				<param name="dailyUtilityConstant" value="0.0" />
				<param name="marginalUtilityOfDistance_util_m" value="0.0" />
				<param name="marginalUtilityOfTraveling_util_hr" value="-6.0" />
				<param name="mode" value="other" />
				<param name="monetaryDistanceRate" value="0.0" />
			</parameterset>
		</parameterset>
	</module>
	<module name="plans" >
		<!-- String: minOfDurationAndEndTime tryEndTimeThenDuration endTimeOnly. Anything besides minOfDurationAndEndTime will internally use a different (simpler) version of the TimeAllocationMutator. -->
		<param name="activityDurationInterpretation" value="tryEndTimeThenDuration" />
		<!-- The Coordinates Reference System in which the coordinates are expressed in the input file. At import, the coordinates will be converted to the coordinate system defined in "global", and willbe converted back at export. If not specified, no conversion happens. -->
		<param name="inputCRS" value="null" />
		<param name="inputPersonAttributesFile" value="null" />
		<param name="inputPlansFile" value="null" />
		<!-- Defines how routes are stored in memory. Currently supported: LinkNetworkRoute, CompressedNetworkRoute. -->
		<param name="networkRouteType" value="LinkNetworkRoute" />
		<!-- (not tested) will remove plan attributes that are presumably not used, such as activityStartTime. default=false. Use with Caution! -->
		<param name="removingUnnecessaryPlanAttributes" value="true" />
		<!-- Name of the (Object)Attribute defining the subpopulation to which pertains a Person (as freight, through traffic, etc.). The attribute must be of String type.  Change away from default only in desperate situations. -->
		<param name="subpopulationAttributeName" value="subpopulation" />
	</module>
	<module name="planscalcroute" >
		<!-- All the modes for which the router is supposed to generate network routes (like car) -->
		<param name="networkModes" value="car" />
		<parameterset type="teleportedModeParameters" >
			<param name="beelineDistanceFactor" value="1.3" />
			<param name="mode" value="bike" />
			<!-- Free-speed factor for a teleported mode. Travel time = teleportedModeFreespeedFactor * <freespeed car travel time>. Insert a line like this for every such mode. Please do not set teleportedModeFreespeedFactor as well as teleportedModeSpeed for the same mode, but if you do, +teleportedModeFreespeedFactor wins over teleportedModeSpeed. -->
			<param name="teleportedModeFreespeedFactor" value="null" />
			<!-- Speed for a teleported mode. Travel time = (<beeline distance> * beelineDistanceFactor) / teleportedModeSpeed. Insert a line like this for every such mode. -->
			<param name="teleportedModeSpeed" value="4.166666666666667" />
		</parameterset>
		<parameterset type="teleportedModeParameters" >
			<param name="beelineDistanceFactor" value="1.3" />
			<param name="mode" value="walk" />
			<param name="teleportedModeFreespeedFactor" value="null" />
			<param name="teleportedModeSpeed" value="0.8333333333333333" />
		</parameterset>
		<parameterset type="teleportedModeParameters" >
			<param name="beelineDistanceFactor" value="1.3" />
			<param name="mode" value="access_walk" />
			<param name="teleportedModeFreespeedFactor" value="null" />
			<param name="teleportedModeSpeed" value="0.8333333333333333" />
		</parameterset>
		<parameterset type="teleportedModeParameters" >
			<param name="beelineDistanceFactor" value="1.3" />
			<param name="mode" value="egress_walk" />
			<param name="teleportedModeFreespeedFactor" value="null" />
			<param name="teleportedModeSpeed" value="0.8333333333333333" />
		</parameterset>
		<parameterset type="teleportedModeParameters" >
			<param name="beelineDistanceFactor" value="1.3" />
			<param name="mode" value="undefined" />
			<param name="teleportedModeFreespeedFactor" value="null" />
			<param name="teleportedModeSpeed" value="13.88888888888889" />
		</parameterset>
		<parameterset type="teleportedModeParameters" >
			<param name="beelineDistanceFactor" value="1.3" />
			<param name="mode" value="ride" />
			<param name="teleportedModeFreespeedFactor" value="1.0" />
			<param name="teleportedModeSpeed" value="null" />
		</parameterset>
		<parameterset type="teleportedModeParameters" >
			<param name="beelineDistanceFactor" value="1.3" />
			<param name="mode" value="pt" />
			<param name="teleportedModeFreespeedFactor" value="2.0" />
			<param name="teleportedModeSpeed" value="null" />
		</parameterset>
	</module>
	<module name="ptCounts" >
		<!-- factor by which to re-scale the simulated values.  necessary when simulation runs with something different from 100%.  needs to be adapted manually -->
		<param name="countsScaleFactor" value="1.0" />
		<!-- distance to distanceFilterCenterNode to include counting stations. The unit of distance is the Euclidean distance implied by the coordinate system -->
		<param name="distanceFilter" value="null" />
		<!-- node id for center node of distance filter -->
		<param name="distanceFilterCenterNode" value="null" />
		<!-- input file containing the alighting (getting off) counts for pt -->
		<param name="inputAlightCountsFile" value="null" />
		<!-- input file containing the boarding (getting on) counts for pt -->
		<param name="inputBoardCountsFile" value="null" />
		<!-- input file containing the occupancy counts for pt -->
		<param name="inputOccupancyCountsFile" value="null" />
		<!-- possible values: `html', `kml', `txt', `all' -->
		<param name="outputformat" value="null" />
		<!-- every how many iterations (starting with 0) counts comparisons are generated -->
		<param name="ptCountsInterval" value="10" />
	</module>
	<module name="qsim" >
		<param name="endTime" value="undefined" />
		<param name="flowCapacityFactor" value="0.1" />
		<!-- decides if waiting vehicles enter the network after or before the already driving vehicles were moved. Default: false -->
		<param name="insertingWaitingVehiclesBeforeDrivingVehicles" value="true" />
		<!-- If link dynamics is set as SeepageQ, set to false if all seep modes should perform seepage. Default is true (better option). -->
		<param name="isRestrictingSeepage" value="true" />
		<!-- If link dynamics is set as SeepageQ, set to true if seep mode do not consumes any space on the link. Default is false. -->
		<param name="isSeepModeStorageFree" value="false" />
		<!-- default: FIFO; options: FIFO PassingQ SeepageQ -->
		<param name="linkDynamics" value="FIFO" />
		<!-- The (initial) width of the links of the network. Use positive floating point values. This is used only for visualisation. -->
		<param name="linkWidth" value="30.0" />
		<!-- [comma-separated list] Defines which modes are congested modes. Technically, these are the modes that the departure handler of the netsimengine handles.  Effective cell size, effective lane width, flow capacity factor, and storage capacity factor need to be set with diligence.  Need to be vehicular modes to make sense. -->
		<param name="mainMode" value="car" />
		<!-- Shortens a link in the visualization, i.e. its start and end point are moved into towards the center. Does not affect traffic flow.  -->
		<param name="nodeOffset" value="0.0" />
		<!-- Number of threads used for the QSim.  Note that this setting is independent from the "global" threads setting.  In contrast to earlier versions, the non-parallel special version is no longer there. -->
		<param name="numberOfThreads" value="1" />
		<!-- Boolean. `true': stuck vehicles are removed, aborting the plan; `false': stuck vehicles are forced into the next link. `false' is probably the better choice. -->
		<param name="removeStuckVehicles" value="false" />
		<!-- If link dynamics is set as SeepageQ, set a seep mode. Default is bike. -->
		<param name="seepMode" value="bike" />
		<!-- Possible values: minOfEndtimeAndMobsimFinished, onlyUseEndtime -->
		<param name="simEndtimeInterpretation" value="null" />
		<!-- Options: maxOfStarttimeAndEarliestActivityEnd onlyUseStarttime  -->
		<param name="simStarttimeInterpretation" value="maxOfStarttimeAndEarliestActivityEnd" />
		<!-- snapshotStyle. One of: equiDist queue withHoles withHolesAndShowHoles kinematicWaves  -->
		<param name="snapshotStyle" value="equiDist" />
		<param name="snapshotperiod" value="00:00:00" />
		<param name="startTime" value="undefined" />
		<param name="storageCapacityFactor" value="0.18" />
		<!-- time in seconds.  Time after which the frontmost vehicle on a link is called `stuck' if it does not move. -->
		<param name="stuckTime" value="10.0" />
		<param name="timeStepSize" value="00:00:01" />
		<!-- options: queue withHoles kinematicWaves  -->
		<param name="trafficDynamics" value="withHoles" />
		<!-- Set this parameter to true if lanes should be used, false if not. -->
		<param name="useLanes" value="false" />
		<!-- If a route does not reference a vehicle, agents will use the vehicle with the same id as their own. -->
		<param name="usePersonIdForMissingVehicleId" value="true" />
		<!-- If false, the qsim accumulates fractional flows up to one flow unit in every time step.  If true, flows are updated only if an agent wants to enter the link or an agent is added to buffer. Default is true. -->
		<param name="usingFastCapacityUpdate" value="true" />
		<!-- if the qsim should use as many runners as there are threads (Christoph's dissertation version) or more of them, together with a thread pool (seems to be faster in some situations, but is not tested). -->
		<param name="usingThreadpool" value="false" />
		<!-- Defines what happens if an agent wants to depart, but the specified vehicle is not available. One of: teleport wait exception  -->
		<param name="vehicleBehavior" value="teleport" />
		<!-- If vehicles should all be the same default vehicle, or come from the vehicles file, or something else.  Possible values:  defaultVehicle modeVehicleTypesFromVehiclesData fromVehiclesData -->
		<param name="vehiclesSource" value="defaultVehicle" />
	</module>
	<module name="strategy" >
		<!-- the external executable will be called with a config file as argument.  This is the pathname to a possible skeleton config, to which additional information will be added.  Can be null. -->
		<param name="ExternalExeConfigTemplate" value="null" />
		<!-- time out value (in seconds) after which matsim will consider the external strategy as failed -->
		<param name="ExternalExeTimeOut" value="3600" />
		<!-- root directory for temporary files generated by the external executable. Provided as a service; I don't think this is used by MATSim. -->
		<param name="ExternalExeTmpFileRootDir" value="null" />
		<!-- fraction of iterations where innovative strategies are switched off.  Something like 0.8 should be good.  E.g. if you run from iteration 400 to iteration 500, innovation is switched off at iteration 480 -->
		<param name="fractionOfIterationsToDisableInnovation" value="0.8" />
		<!-- maximum number of plans per agent.  ``0'' means ``infinity''.  Currently (2010), ``5'' is a good number -->
		<param name="maxAgentPlanMemorySize" value="4" />
		<!-- strategyName of PlanSelector for plans removal.  Possible defaults: WorstPlanSelector SelectRandom SelectExpBetaForRemoval ChangeExpBetaForRemoval PathSizeLogitSelectorForRemoval . The current default, WorstPlanSelector is not a good choice from a discrete choice theoretical perspective. Alternatives, however, have not been systematically tested. kai, feb'12 -->
		<param name="planSelectorForRemoval" value="WorstPlanSelector" />
		<parameterset type="strategysettings" >
			<!-- iteration after which strategy will be disabled.  most useful for ``innovative'' strategies (new routes, new times, ...). Normally, better use fractionOfIterationsToDisableInnovation -->
			<param name="disableAfterIteration" value="-1" />
			<!-- path to external executable (if applicable) -->
			<param name="executionPath" value="null" />
			<!-- strategyName of strategy.  Possible default names: SelectRandomBestScoreKeepLastSelectedChangeExpBetaSelectExpBetaSelectPathSizeLogit (selectors), ReRouteTimeAllocationMutatorTimeAllocationMutator_ReRouteChangeSingleTripModeChangeTripModeSubtourModeChoice (innovative strategies). -->
			<param name="strategyName" value="ChangeExpBeta" />
			<!-- subpopulation to which the strategy applies. "null" refers to the default population, that is, the set of persons for which no explicit subpopulation is defined (ie no subpopulation attribute) -->
			<param name="subpopulation" value="null" />
			<!-- weight of a strategy: for each agent, a strategy will be selected with a probability proportional to its weight -->
			<param name="weight" value="0.8" />
		</parameterset>
		<parameterset type="strategysettings" >
			<param name="disableAfterIteration" value="-1" />
			<param name="executionPath" value="null" />
			<param name="strategyName" value="ReRoute" />
			<param name="subpopulation" value="null" />
			<param name="weight" value="0.2" />
		</parameterset>
	</module>
	<module name="subtourModeChoice" >
		<!-- Only for backwards compatibility.  Defines if only trips from modes list should change mode, or all trips.  Options: fromAllModesToSpecifiedModes fromSpecifiedModesToSpecifiedModes  -->
		<param name="behavior" value="fromSpecifiedModesToSpecifiedModes" />
		<!-- Defines the chain-based modes, seperated by commas -->
		<param name="chainBasedModes" value="car,bike" />
		<!-- Defines whether car availability must be considered or not. A agent has no car only if it has no license, or never access to a car -->
		<param name="considerCarAvailability" value="false" />
		<!-- Defines all the modes available, including chain-based modes, seperated by commas -->
		<param name="modes" value="car,pt,bike,walk" />
	</module>
	<module name="transit" >
		<!-- The Coordinates Reference System in which the coordinates are expressed in the input file. At import, the coordinates will be converted to the coordinate system defined in "global", and willbe converted back at export. If not specified, no conversion happens. -->
		<param name="inputScheduleCRS" value="null" />
		<!-- Optional input file containing additional attributes for transit lines, stored as ObjectAttributes. -->
		<param name="transitLinesAttributesFile" value="null" />
		<!-- Comma-separated list of transportation modes that are handled as transit. Defaults to 'pt'. -->
		<param name="transitModes" value="pt" />
		<!-- Input file containing the transit schedule to be simulated. -->
		<param name="transitScheduleFile" value="null" />
		<!-- Optional input file containing additional attributes for transit stop facilities, stored as ObjectAttributes. -->
		<param name="transitStopsAttributesFile" value="null" />
		<!-- Set this parameter to true if transit should be simulated, false if not. -->
		<param name="useTransit" value="false" />
		<!-- Input file containing the vehicles used by the departures in the transit schedule. -->
		<param name="vehiclesFile" value="null" />
	</module>
	<module name="transitRouter" >
		<!-- additional time the router allocates when a line switch happens. Can be interpreted as a 'safety' time that agents need to safely transfer from one line to another -->
		<param name="additionalTransferTime" value="0.0" />
		<!-- Factor with which direct walk generalized cost is multiplied before it is compared to the pt generalized cost.  Set to a very high value to reduce direct walk results. -->
		<param name="directWalkFactor" value="1.0" />
		<!-- step size to increase searchRadius if no stops are found -->
		<param name="extensionRadius" value="200.0" />
		<!-- maximum beeline distance between stops that agents could transfer to by walking -->
		<param name="maxBeelineWalkConnectionDistance" value="100.0" />
		<!-- the radius in which stop locations are searched, given a start or target coordinate -->
		<param name="searchRadius" value="1000.0" />
	</module>
	<module name="travelTimeCalculator" >
		<!-- (only for backwards compatibility; only used if separateModes==false && + filterModes==true)  Transport modes that will be respected by the travel time collector. 'car' is default which includes also buses from the pt simulation module. -->
		<param name="analyzedModes" value="car" />
		<param name="calculateLinkToLinkTravelTimes" value="false" />
		<param name="calculateLinkTravelTimes" value="true" />
		<!-- (only for backwards compatiblity; only used if separateModes==false)  Only modes included in analyzedModes are included. -->
		<param name="filterModes" value="false" />
		<!-- The lenght (in sec) of the time period that is splited into time bins; an additional time bin is created to aggregate all travel times collected after maxTime -->
		<param name="maxTime" value="108000" />
		<!-- (only for backwards compatibility) If false, link travel times are measured and aggregated over all vehicles using the link. -->
		<param name="separateModes" value="true" />
		<!-- How to deal with congested time bins that have no link entry events. `optimistic' assumes free speed (too optimistic); 'experimental_LastMile' is experimental and probably too pessimistic. -->
		<param name="travelTimeAggregator" value="optimistic" />
		<!-- The size of the time bin (in sec) into which the link travel times are aggregated for the router -->
		<param name="travelTimeBinSize" value="900" />
		<!-- possible values: TravelTimeCalculatorArray TravelTimeCalculatorHashMap  -->
		<param name="travelTimeCalculator" value="TravelTimeCalculatorArray" />
		<!-- How to deal with link entry times at different positions during the time bin. Currently supported: average, linearinterpolation -->
		<param name="travelTimeGetter" value="average" />
	</module>
	<module name="vehicles" >
		<param name="vehiclesFile" value="null" />
	</module>
	<module name="vspExperimental" >
		<!-- (do not use except of you have to) There was a problem with pt interaction scoring.  Some people solved it by overwriting the parameters of the pt interaction activity type.  Doing this now throws an Exception.  If you still insist on doing this, set the following to true. -->
		<param name="isAbleToOverwritePtInteractionParams" value="false" />
		<param name="isGeneratingBoardingDeniedEvent" value="false" />
		<!-- if an approximation of the opportunity cost of time is included into the radius calculation for location choice.`true' will be faster, but it is an approximation.  Default is `true'; `false' is available for backwards compatibility. -->
		<param name="isUsingOpportunityCostOfTimeForLocationChoice" value="true" />
		<param name="logitScaleParamForPlansRemoval" value="1.0" />
		<!-- Options: | ignore | info | warn | abort | .  When violating VSP defaults, this results in nothing, logfile infos, logfile warnings, or aborts.  Members of VSP should use `abort' or talk to kai. -->
		<param name="vspDefaultsCheckingLevel" value="warn" />
		<!-- if true then writes output_events in output directory.  default is `false'. Will only work when lastIteration is multiple of events writing interval -->
		<param name="writingOutputEvents" value="true" />
	</module>

</config>

2019-05-28 13:57:26,604  INFO ControlerUtils:63 Complete config dump done.
2019-05-28 13:57:26,605  INFO ControlerUtils:64 Checking consistency of config...
2019-05-28 13:57:26,605  INFO PlanCalcScoreConfigGroup$ScoringParameterSet:1492 NO OPENING OR CLOSING TIMES DEFINED!

There is no activity type that has an opening *and* closing time (or opening time and late penalty) defined.
This usually means that the activity chains can be shifted by an arbitrary
number of hours without having an effect on the score of the plans, and thus
resulting in wrong results / traffic patterns.
If you are using MATSim without time adaptation, you can ignore this warning.


2019-05-28 13:57:26,605  INFO VspConfigConsistencyCheckerImpl:72 running checkConsistency ...
2019-05-28 13:57:26,605  WARN VspConfigConsistencyCheckerImpl:83 you are insisting on config v1.  vsp default is using v2.
2019-05-28 13:57:26,605  WARN VspConfigConsistencyCheckerImpl:99 you are not using FastAStarLandmarks as routing algorithm.  vsp default is to use FastAStarLandmarks.
2019-05-28 13:57:26,605  WARN VspConfigConsistencyCheckerImpl:201 You are not setting fractionOfIterationsToStartScoreMSA; vsp default is to set this to something like 0.8.  This means you have to add the following lines to your config file: 
2019-05-28 13:57:26,605  WARN VspConfigConsistencyCheckerImpl:203 <module name="planCalcScore">
2019-05-28 13:57:26,606  WARN VspConfigConsistencyCheckerImpl:204 	<param name="fractionOfIterationsToStartScoreMSA" value="0.8" />
2019-05-28 13:57:26,606  WARN VspConfigConsistencyCheckerImpl:205 </module>
2019-05-28 13:57:26,606  WARN VspConfigConsistencyCheckerImpl:247 found `plansCalcRoute.insertingAccessEgressWalk==false'; vsp should use `true' or talk to Kai. 
2019-05-28 13:57:26,606  WARN VspConfigConsistencyCheckerImpl:254 found qsim.usePersonIdForMissingVehicleId==true; this is only for backwards compatibility and should rather be set to false
2019-05-28 13:57:26,606  WARN VspConfigConsistencyCheckerImpl:259 found `qsim.usingTravelTimeCheckInTeleporation==false'; vsp should try out `true' and report.
2019-05-28 13:57:26,606  INFO ControlerUtils:66 Checking consistency of config done.
2019-05-28 13:57:26,753  INFO NetworkImpl:426 building QuadTree for nodes: xrange(114.6172782,117.322268); yrange(-33.7157042,-30.5546638)
2019-05-28 13:57:26,815  INFO NetworkImpl:435 Building QuadTree took 0.097 seconds.
2019-05-28 13:57:26,945  INFO Counter:70 [PersonPrepareForSim] handled person # 1
2019-05-28 13:57:27,078  INFO Counter:70 [PersonPrepareForSim] handled person # 2
2019-05-28 13:57:27,155  INFO Counter:70 [PersonPrepareForSim] handled person # 4
2019-05-28 13:57:27,328  INFO Counter:70 [PersonPrepareForSim] handled person # 8
2019-05-28 13:57:27,582  INFO Counter:70 [PersonPrepareForSim] handled person # 16
2019-05-28 13:57:27,819  INFO Counter:70 [PersonPrepareForSim] handled person # 32
2019-05-28 13:57:28,683  INFO Counter:70 [PersonPrepareForSim] handled person # 64
2019-05-28 13:57:31,138  INFO Counter:70 [PersonPrepareForSim] handled person # 128
2019-05-28 13:57:35,203  INFO Counter:70 [PersonPrepareForSim] handled person # 256
2019-05-28 13:57:41,781  INFO Counter:70 [PersonPrepareForSim] handled person # 512
2019-05-28 13:57:57,823  INFO Counter:70 [PersonPrepareForSim] handled person # 1024
2019-05-28 13:58:35,519  INFO Counter:70 [PersonPrepareForSim] handled person # 2048
2019-05-28 13:59:40,753  INFO Counter:70 [PersonPrepareForSim] handled person # 4096
2019-05-28 14:02:03,598  INFO Counter:70 [PersonPrepareForSim] handled person # 8192
2019-05-28 14:05:57,578  INFO Counter:70 [PersonPrepareForSim] handled person # 16384
2019-05-28 14:14:04,834  INFO Counter:70 [PersonPrepareForSim] handled person # 32768
2019-05-28 14:29:01,895  INFO Counter:76 [PersonPrepareForSim] handled person # 62635
2019-05-28 14:29:01,897  INFO Counter:70 [VehiclesImpl] added vehicle # 1
2019-05-28 14:29:01,897  INFO Counter:70 [VehiclesImpl] added vehicle # 2
2019-05-28 14:29:01,897  INFO Counter:70 [VehiclesImpl] added vehicle # 4
2019-05-28 14:29:01,897  INFO Counter:70 [VehiclesImpl] added vehicle # 8
2019-05-28 14:29:01,897  INFO Counter:70 [VehiclesImpl] added vehicle # 16
2019-05-28 14:29:01,897  INFO Counter:70 [VehiclesImpl] added vehicle # 32
2019-05-28 14:29:01,897  INFO Counter:70 [VehiclesImpl] added vehicle # 64
2019-05-28 14:29:01,898  INFO Counter:70 [VehiclesImpl] added vehicle # 128
2019-05-28 14:29:01,898  INFO Counter:70 [VehiclesImpl] added vehicle # 256
2019-05-28 14:29:01,899  INFO Counter:70 [VehiclesImpl] added vehicle # 512
2019-05-28 14:29:01,900  INFO Counter:70 [VehiclesImpl] added vehicle # 1024
2019-05-28 14:29:01,902  INFO Counter:70 [VehiclesImpl] added vehicle # 2048
2019-05-28 14:29:01,906  INFO Counter:70 [VehiclesImpl] added vehicle # 4096
2019-05-28 14:29:01,910  INFO Counter:70 [VehiclesImpl] added vehicle # 8192
2019-05-28 14:29:01,919  INFO Counter:70 [VehiclesImpl] added vehicle # 16384
2019-05-28 14:29:01,936  INFO Counter:70 [VehiclesImpl] added vehicle # 32768
2019-05-28 14:29:02,029  INFO AbstractController:123 ###################################################
2019-05-28 14:29:02,029  INFO AbstractController:124 ### ITERATION 0 BEGINS
2019-05-28 14:29:02,031  INFO ControlerListenerManagerImpl:145 calling notifyIterationStarts on org.matsim.analysis.LegHistogramListener
2019-05-28 14:29:02,031  INFO ControlerListenerManagerImpl:145 calling notifyIterationStarts on org.matsim.analysis.LinkStatsControlerListener
2019-05-28 14:29:02,031  INFO ControlerListenerManagerImpl:145 calling notifyIterationStarts on org.matsim.core.replanning.ReplanningContextImpl
2019-05-28 14:29:02,031  INFO ControlerListenerManagerImpl:145 calling notifyIterationStarts on org.matsim.core.scoring.ExperiencedPlansServiceImpl$1
2019-05-28 14:29:02,067  INFO ControlerListenerManagerImpl:145 calling notifyIterationStarts on org.matsim.core.scoring.ScoringFunctionsForPopulation$1
2019-05-28 14:29:02,215  INFO ControlerListenerManagerImpl:148 [it.0] all ControlerIterationStartsListeners called.
2019-05-28 14:29:02,216  INFO ControlerListenerManagerImpl:224 calling notifyBeforeMobsim on org.matsim.core.controler.corelisteners.EventsHandlingImpl
2019-05-28 14:29:02,216  INFO EventsManagerImpl:170 resetting Event-Handlers
2019-05-28 14:29:02,216  INFO EventsManagerImpl:177   org.matsim.core.trafficmonitoring.TravelTimeCalculator
2019-05-28 14:29:02,381  INFO EventsManagerImpl:177   org.matsim.core.scoring.EventsToLegsAndActivities
2019-05-28 14:29:02,382  INFO EventsManagerImpl:177   org.matsim.analysis.VolumesAnalyzer
2019-05-28 14:29:02,382  INFO EventsManagerImpl:177   org.matsim.core.events.algorithms.Vehicle2DriverEventHandler
2019-05-28 14:29:02,382  INFO EventsManagerImpl:177   org.matsim.core.scoring.ScoringFunctionsForPopulation
2019-05-28 14:29:02,382  INFO EventsManagerImpl:177   org.matsim.analysis.LegHistogram
2019-05-28 14:29:02,382  INFO EventsManagerImpl:177   org.matsim.analysis.CalcLegTimes
2019-05-28 14:29:02,382  INFO ControlerListenerManagerImpl:224 calling notifyBeforeMobsim on org.matsim.core.controler.corelisteners.PlansDumpingImpl
2019-05-28 14:29:02,382  INFO ControlerListenerManagerImpl:229 calling notifyBeforeMobsim on org.matsim.core.population.VspPlansCleaner
2019-05-28 14:29:02,455  INFO ControlerListenerManagerImpl:232 [it.0] all ControlerBeforeMobsimListeners called.
2019-05-28 14:29:02,567  INFO Counter:70 [PersonPrepareForSim] handled person # 1
2019-05-28 14:29:02,568  INFO Counter:70 [PersonPrepareForSim] handled person # 2
2019-05-28 14:29:02,568  INFO Counter:70 [PersonPrepareForSim] handled person # 4
2019-05-28 14:29:02,568  INFO Counter:70 [PersonPrepareForSim] handled person # 8
2019-05-28 14:29:02,568  INFO Counter:70 [PersonPrepareForSim] handled person # 16
2019-05-28 14:29:02,568  INFO Counter:70 [PersonPrepareForSim] handled person # 32
2019-05-28 14:29:02,568  INFO Counter:70 [PersonPrepareForSim] handled person # 64
2019-05-28 14:29:02,568  INFO Counter:70 [PersonPrepareForSim] handled person # 128
2019-05-28 14:29:02,569  INFO Counter:70 [PersonPrepareForSim] handled person # 256
2019-05-28 14:29:02,569  INFO Counter:70 [PersonPrepareForSim] handled person # 512
2019-05-28 14:29:02,570  INFO Counter:70 [PersonPrepareForSim] handled person # 1024
2019-05-28 14:29:02,572  INFO Counter:70 [PersonPrepareForSim] handled person # 2048
2019-05-28 14:29:02,575  INFO Counter:70 [PersonPrepareForSim] handled person # 4096
2019-05-28 14:29:02,580  INFO Counter:70 [PersonPrepareForSim] handled person # 8192
2019-05-28 14:29:02,592  INFO Counter:70 [PersonPrepareForSim] handled person # 16384
2019-05-28 14:29:02,614  INFO Counter:70 [PersonPrepareForSim] handled person # 32768
2019-05-28 14:29:02,650  INFO Counter:76 [PersonPrepareForSim] handled person # 62635
2019-05-28 14:29:02,715  INFO MobsimListenerManager:49 calling addQueueSimulationListener
2019-05-28 14:29:02,715  INFO MobsimListenerManager:53   assigned class org.matsim.core.mobsim.framework.listeners.MobsimListener to interface org.matsim.core.mobsim.framework.listeners.MobsimInitializedListener
2019-05-28 14:29:02,715  INFO MobsimListenerManager:53   assigned class org.matsim.core.mobsim.framework.listeners.MobsimListener to interface org.matsim.vis.snapshotwriters.SnapshotWriterManager
2019-05-28 14:29:02,715  INFO MobsimListenerManager:53   assigned class org.matsim.core.mobsim.framework.listeners.MobsimListener to interface org.matsim.core.mobsim.framework.listeners.MobsimListener
2019-05-28 14:29:02,715  INFO MobsimListenerManager:53   assigned class org.matsim.core.mobsim.framework.listeners.MobsimListener to interface org.matsim.core.mobsim.framework.listeners.MobsimBeforeCleanupListener
2019-05-28 14:29:02,716  INFO MobsimListenerManager:53   assigned class org.matsim.core.mobsim.framework.listeners.MobsimListener to interface org.matsim.core.mobsim.framework.listeners.MobsimAfterSimStepListener
2019-05-28 14:29:03,444  INFO QSimProvider:111 Added MobsimEngine class org.matsim.core.mobsim.qsim.ActivityEngine
2019-05-28 14:29:03,444  INFO QSimProvider:117 Added Activityhandler class org.matsim.core.mobsim.qsim.ActivityEngine
2019-05-28 14:29:03,444  INFO QSimProvider:123 Added DepartureHandler class org.matsim.core.mobsim.qsim.qnetsimengine.VehicularDepartureHandler
2019-05-28 14:29:03,444  INFO QSimProvider:111 Added MobsimEngine class org.matsim.core.mobsim.qsim.qnetsimengine.QNetsimEngine
2019-05-28 14:29:03,445  INFO QSimProvider:111 Added MobsimEngine class org.matsim.core.mobsim.qsim.DefaultTeleportationEngine
2019-05-28 14:29:03,445  INFO QSimProvider:123 Added DepartureHandler class org.matsim.core.mobsim.qsim.DefaultTeleportationEngine
2019-05-28 14:29:03,445  INFO QSimProvider:129 Added AgentSource class org.matsim.core.mobsim.qsim.agents.PopulationAgentSource
2019-05-28 14:29:03,445  INFO MobsimListenerManager:49 calling addQueueSimulationListener
2019-05-28 14:29:03,445  INFO MobsimListenerManager:53   assigned class org.matsim.core.mobsim.framework.listeners.MobsimListener to interface org.matsim.core.mobsim.framework.listeners.MobsimBeforeSimStepListener
2019-05-28 14:29:03,445  INFO MobsimListenerManager:53   assigned class org.matsim.core.mobsim.framework.listeners.MobsimListener to interface org.matsim.core.mobsim.qsim.messagequeueengine.MessageQueueEngine
2019-05-28 14:29:03,445  INFO MobsimListenerManager:53   assigned class org.matsim.core.mobsim.framework.listeners.MobsimListener to interface org.matsim.core.mobsim.framework.listeners.MobsimListener
2019-05-28 14:29:03,445  INFO QSimProvider:135 Added MobsimListener class org.matsim.core.mobsim.qsim.messagequeueengine.MessageQueueEngine
2019-05-28 14:29:04,311  INFO QNetsimEngine:506 Assigned 121815 nodes and 260717 links to QSimEngineRunner #0
2019-05-28 14:29:04,399  INFO QNetsimEngine:346 SIMULATION (QNetsimEngine) AT 06:00:00 : #links=0 #nodes=0
2019-05-28 14:29:04,400  INFO QSim:505 SIMULATION (NEW QSim) AT 06:00:00 : #Veh=62635 lost=0 simT=0.0s realT=1s; (s/r): 0.0
2019-05-28 14:29:04,400  INFO Gbl:58 used RAM: 2863153424B = 2796048kB = 2730MB  free: 1814019824B = 1729MB  total: 4677173248B = 4460MB
2019-05-28 14:29:04,401  INFO EventsManagerImpl:134  event # 1
2019-05-28 14:29:04,403  INFO EventsManagerImpl:134  event # 4
2019-05-28 14:29:04,404  INFO EventsManagerImpl:134  event # 16
2019-05-28 14:29:04,406  INFO EventsManagerImpl:134  event # 64
2019-05-28 14:29:04,408  INFO EventsManagerImpl:134  event # 256
2019-05-28 14:29:04,417  INFO EventsManagerImpl:134  event # 1024
2019-05-28 14:29:04,440  INFO EventsManagerImpl:134  event # 4096
2019-05-28 14:29:04,488  INFO EventsManagerImpl:134  event # 16384
2019-05-28 14:29:04,652  INFO EventsManagerImpl:134  event # 65536
2019-05-28 14:29:05,199  INFO EventsManagerImpl:134  event # 262144
2019-05-28 14:29:07,116  INFO EventsManagerImpl:134  event # 1048576
2019-05-28 14:29:15,527  INFO QNetsimEngine:346 SIMULATION (QNetsimEngine) AT 07:00:00 : #links=2420 #nodes=1744
2019-05-28 14:29:15,527  INFO QSim:505 SIMULATION (NEW QSim) AT 07:00:00 : #Veh=62635 lost=0 simT=3600.0s realT=12s; (s/r): 300.0
2019-05-28 14:29:15,527  INFO Gbl:58 used RAM: 3742700744B = 3654981kB = 3569MB  free: 934472504B = 891MB  total: 4677173248B = 4460MB
2019-05-28 14:29:16,791  INFO EventsManagerImpl:134  event # 4194304
2019-05-28 14:29:27,981  INFO QNetsimEngine:346 SIMULATION (QNetsimEngine) AT 08:00:00 : #links=2564 #nodes=1821
2019-05-28 14:29:27,981  INFO QSim:505 SIMULATION (NEW QSim) AT 08:00:00 : #Veh=62635 lost=0 simT=7200.0s realT=25s; (s/r): 288.0
2019-05-28 14:29:27,981  INFO Gbl:58 used RAM: 3601854000B = 3517435kB = 3434MB  free: 1109922256B = 1058MB  total: 4711776256B = 4493MB
2019-05-28 14:29:39,913  INFO QNetsimEngine:346 SIMULATION (QNetsimEngine) AT 09:00:00 : #links=2616 #nodes=1862
2019-05-28 14:29:39,914  INFO QSim:505 SIMULATION (NEW QSim) AT 09:00:00 : #Veh=62635 lost=0 simT=10800.0s realT=37s; (s/r): 291.8918918918919
2019-05-28 14:29:39,914  INFO Gbl:58 used RAM: 3438841360B = 3358243kB = 3279MB  free: 1355248112B = 1292MB  total: 4794089472B = 4572MB
2019-05-28 14:29:45,549  INFO QNetsimEngine:346 SIMULATION (QNetsimEngine) AT 10:00:00 : #links=1262 #nodes=801
2019-05-28 14:29:45,549  INFO QSim:505 SIMULATION (NEW QSim) AT 10:00:00 : #Veh=62635 lost=0 simT=14400.0s realT=42s; (s/r): 342.85714285714283
2019-05-28 14:29:45,549  INFO Gbl:58 used RAM: 3863973328B = 3773411kB = 3684MB  free: 930116144B = 887MB  total: 4794089472B = 4572MB
2019-05-28 14:29:49,598  INFO QNetsimEngine:346 SIMULATION (QNetsimEngine) AT 11:00:00 : #links=936 #nodes=601
2019-05-28 14:29:49,598  INFO QSim:505 SIMULATION (NEW QSim) AT 11:00:00 : #Veh=62635 lost=0 simT=18000.0s realT=46s; (s/r): 391.30434782608694
2019-05-28 14:29:49,598  INFO Gbl:58 used RAM: 3068110432B = 2996201kB = 2925MB  free: 1730697632B = 1650MB  total: 4798808064B = 4576MB
2019-05-28 14:29:52,442  INFO QNetsimEngine:346 SIMULATION (QNetsimEngine) AT 12:00:00 : #links=648 #nodes=440
2019-05-28 14:29:52,443  INFO QSim:505 SIMULATION (NEW QSim) AT 12:00:00 : #Veh=62635 lost=0 simT=21600.0s realT=49s; (s/r): 440.81632653061223
2019-05-28 14:29:52,443  INFO Gbl:58 used RAM: 3325699136B = 3247753kB = 3171MB  free: 1473108928B = 1404MB  total: 4798808064B = 4576MB
2019-05-28 14:29:54,269  INFO QNetsimEngine:346 SIMULATION (QNetsimEngine) AT 13:00:00 : #links=393 #nodes=293
2019-05-28 14:29:54,270  INFO QSim:505 SIMULATION (NEW QSim) AT 13:00:00 : #Veh=62635 lost=0 simT=25200.0s realT=51s; (s/r): 494.11764705882354
2019-05-28 14:29:54,270  INFO Gbl:58 used RAM: 3476527856B = 3395046kB = 3315MB  free: 1322280208B = 1261MB  total: 4798808064B = 4576MB
2019-05-28 14:29:55,488  INFO QNetsimEngine:346 SIMULATION (QNetsimEngine) AT 14:00:00 : #links=269 #nodes=191
2019-05-28 14:29:55,489  INFO QSim:505 SIMULATION (NEW QSim) AT 14:00:00 : #Veh=62635 lost=0 simT=28800.0s realT=52s; (s/r): 553.8461538461538
2019-05-28 14:29:55,489  INFO Gbl:58 used RAM: 3608739048B = 3524159kB = 3441MB  free: 1190069016B = 1134MB  total: 4798808064B = 4576MB
2019-05-28 14:29:56,412  INFO QNetsimEngine:346 SIMULATION (QNetsimEngine) AT 15:00:00 : #links=251 #nodes=195
2019-05-28 14:29:56,413  INFO QSim:505 SIMULATION (NEW QSim) AT 15:00:00 : #Veh=62635 lost=0 simT=32400.0s realT=53s; (s/r): 611.3207547169811
2019-05-28 14:29:56,413  INFO Gbl:58 used RAM: 3715497992B = 3628416kB = 3543MB  free: 1083310072B = 1033MB  total: 4798808064B = 4576MB
2019-05-28 14:29:57,029  INFO EventsManagerImpl:134  event # 16777216
2019-05-28 14:30:04,115  INFO QNetsimEngine:346 SIMULATION (QNetsimEngine) AT 16:00:00 : #links=1256 #nodes=1156
2019-05-28 14:30:04,116  INFO QSim:505 SIMULATION (NEW QSim) AT 16:00:00 : #Veh=55371 lost=0 simT=36000.0s realT=61s; (s/r): 590.1639344262295
2019-05-28 14:30:04,116  INFO Gbl:58 used RAM: 3337705088B = 3259477kB = 3183MB  free: 1540270464B = 1468MB  total: 4877975552B = 4652MB
2019-05-28 14:30:12,743  INFO QNetsimEngine:346 SIMULATION (QNetsimEngine) AT 17:00:00 : #links=1352 #nodes=1158
2019-05-28 14:30:12,744  INFO QSim:505 SIMULATION (NEW QSim) AT 17:00:00 : #Veh=47369 lost=0 simT=39600.0s realT=70s; (s/r): 565.7142857142857
2019-05-28 14:30:12,744  INFO Gbl:58 used RAM: 4021745800B = 3927486kB = 3835MB  free: 856229752B = 816MB  total: 4877975552B = 4652MB
2019-05-28 14:30:21,405  INFO QNetsimEngine:346 SIMULATION (QNetsimEngine) AT 18:00:00 : #links=1421 #nodes=1259
2019-05-28 14:30:21,405  INFO QSim:505 SIMULATION (NEW QSim) AT 18:00:00 : #Veh=39226 lost=0 simT=43200.0s realT=78s; (s/r): 553.8461538461538
2019-05-28 14:30:21,405  INFO Gbl:58 used RAM: 3663159008B = 3577303kB = 3493MB  free: 1241555232B = 1184MB  total: 4904714240B = 4677MB
2019-05-28 14:30:25,503  INFO QNetsimEngine:346 SIMULATION (QNetsimEngine) AT 19:00:00 : #links=627 #nodes=501
2019-05-28 14:30:25,503  INFO QSim:505 SIMULATION (NEW QSim) AT 19:00:00 : #Veh=34972 lost=0 simT=46800.0s realT=82s; (s/r): 570.7317073170732
2019-05-28 14:30:25,503  INFO Gbl:58 used RAM: 3984577712B = 3891189kB = 3799MB  free: 920136528B = 877MB  total: 4904714240B = 4677MB
2019-05-28 14:30:28,476  INFO QNetsimEngine:346 SIMULATION (QNetsimEngine) AT 20:00:00 : #links=438 #nodes=357
2019-05-28 14:30:28,476  INFO QSim:505 SIMULATION (NEW QSim) AT 20:00:00 : #Veh=31822 lost=0 simT=50400.0s realT=85s; (s/r): 592.9411764705883
2019-05-28 14:30:28,477  INFO Gbl:58 used RAM: 3230974128B = 3155248kB = 3081MB  free: 1741897552B = 1661MB  total: 4972871680B = 4742MB
2019-05-28 14:30:30,518  INFO QNetsimEngine:346 SIMULATION (QNetsimEngine) AT 21:00:00 : #links=344 #nodes=302
2019-05-28 14:30:30,518  INFO QSim:505 SIMULATION (NEW QSim) AT 21:00:00 : #Veh=29609 lost=0 simT=54000.0s realT=87s; (s/r): 620.6896551724138
2019-05-28 14:30:30,519  INFO Gbl:58 used RAM: 3431687680B = 3351257kB = 3272MB  free: 1541184000B = 1469MB  total: 4972871680B = 4742MB
2019-05-28 14:30:32,259  INFO QNetsimEngine:346 SIMULATION (QNetsimEngine) AT 22:00:00 : #links=283 #nodes=253
2019-05-28 14:30:32,259  INFO QSim:505 SIMULATION (NEW QSim) AT 22:00:00 : #Veh=27733 lost=0 simT=57600.0s realT=89s; (s/r): 647.1910112359551
2019-05-28 14:30:32,259  INFO Gbl:58 used RAM: 3598004784B = 3513676kB = 3431MB  free: 1374866896B = 1311MB  total: 4972871680B = 4742MB
2019-05-28 14:30:33,742  INFO QNetsimEngine:346 SIMULATION (QNetsimEngine) AT 23:00:00 : #links=250 #nodes=239
2019-05-28 14:30:33,742  INFO QSim:505 SIMULATION (NEW QSim) AT 23:00:00 : #Veh=26054 lost=0 simT=61200.0s realT=91s; (s/r): 672.5274725274726
2019-05-28 14:30:33,742  INFO Gbl:58 used RAM: 3755382464B = 3667365kB = 3581MB  free: 1217489216B = 1161MB  total: 4972871680B = 4742MB
2019-05-28 14:30:34,930  INFO QNetsimEngine:346 SIMULATION (QNetsimEngine) AT 24:00:00 : #links=192 #nodes=179
2019-05-28 14:30:34,930  INFO QSim:505 SIMULATION (NEW QSim) AT 24:00:00 : #Veh=24603 lost=0 simT=64800.0s realT=92s; (s/r): 704.3478260869565
2019-05-28 14:30:34,930  INFO Gbl:58 used RAM: 3879386224B = 3788463kB = 3699MB  free: 1093485456B = 1042MB  total: 4972871680B = 4742MB
2019-05-28 14:30:36,095  INFO QNetsimEngine:346 SIMULATION (QNetsimEngine) AT 25:00:00 : #links=184 #nodes=187
2019-05-28 14:30:36,095  INFO QSim:505 SIMULATION (NEW QSim) AT 25:00:00 : #Veh=23246 lost=0 simT=68400.0s realT=93s; (s/r): 735.483870967742
2019-05-28 14:30:36,095  INFO Gbl:58 used RAM: 4003391400B = 3909561kB = 3817MB  free: 969480280B = 924MB  total: 4972871680B = 4742MB
2019-05-28 14:30:37,384  INFO QNetsimEngine:346 SIMULATION (QNetsimEngine) AT 26:00:00 : #links=174 #nodes=186
2019-05-28 14:30:37,384  INFO QSim:505 SIMULATION (NEW QSim) AT 26:00:00 : #Veh=21986 lost=0 simT=72000.0s realT=94s; (s/r): 765.9574468085107
2019-05-28 14:30:37,385  INFO Gbl:58 used RAM: 3156536560B = 3082555kB = 3010MB  free: 1832588048B = 1747MB  total: 4989124608B = 4758MB
2019-05-28 14:30:38,390  INFO QNetsimEngine:346 SIMULATION (QNetsimEngine) AT 27:00:00 : #links=176 #nodes=201
2019-05-28 14:30:38,390  INFO QSim:505 SIMULATION (NEW QSim) AT 27:00:00 : #Veh=20787 lost=0 simT=75600.0s realT=95s; (s/r): 795.7894736842105
2019-05-28 14:30:38,390  INFO Gbl:58 used RAM: 3276626632B = 3199830kB = 3124MB  free: 1712497976B = 1633MB  total: 4989124608B = 4758MB
2019-05-28 14:30:39,347  INFO QNetsimEngine:346 SIMULATION (QNetsimEngine) AT 28:00:00 : #links=146 #nodes=157
2019-05-28 14:30:39,347  INFO QSim:505 SIMULATION (NEW QSim) AT 28:00:00 : #Veh=19655 lost=0 simT=79200.0s realT=96s; (s/r): 825.0
2019-05-28 14:30:39,348  INFO Gbl:58 used RAM: 3373329792B = 3294267kB = 3217MB  free: 1615794816B = 1540MB  total: 4989124608B = 4758MB
2019-05-28 14:30:40,184  INFO QNetsimEngine:346 SIMULATION (QNetsimEngine) AT 29:00:00 : #links=152 #nodes=157
2019-05-28 14:30:40,184  INFO QSim:505 SIMULATION (NEW QSim) AT 29:00:00 : #Veh=18473 lost=0 simT=82800.0s realT=97s; (s/r): 853.6082474226804
2019-05-28 14:30:40,185  INFO Gbl:58 used RAM: 3470033416B = 3388704kB = 3309MB  free: 1519091192B = 1448MB  total: 4989124608B = 4758MB
2019-05-28 14:30:40,948  INFO QNetsimEngine:346 SIMULATION (QNetsimEngine) AT 30:00:00 : #links=147 #nodes=159
2019-05-28 14:30:40,948  INFO QSim:505 SIMULATION (NEW QSim) AT 30:00:00 : #Veh=17294 lost=0 simT=86400.0s realT=98s; (s/r): 881.6326530612245
2019-05-28 14:30:40,948  INFO Gbl:58 used RAM: 3570882408B = 3487189kB = 3405MB  free: 1418242200B = 1352MB  total: 4989124608B = 4758MB
2019-05-28 14:30:41,715  INFO QNetsimEngine:346 SIMULATION (QNetsimEngine) AT 31:00:00 : #links=126 #nodes=160
2019-05-28 14:30:41,716  INFO QSim:505 SIMULATION (NEW QSim) AT 31:00:00 : #Veh=16241 lost=0 simT=90000.0s realT=99s; (s/r): 909.0909090909091
2019-05-28 14:30:41,716  INFO Gbl:58 used RAM: 3667585168B = 3581626kB = 3497MB  free: 1321539440B = 1260MB  total: 4989124608B = 4758MB
2019-05-28 14:30:42,426  INFO QNetsimEngine:346 SIMULATION (QNetsimEngine) AT 32:00:00 : #links=124 #nodes=148
2019-05-28 14:30:42,427  INFO QSim:505 SIMULATION (NEW QSim) AT 32:00:00 : #Veh=15247 lost=0 simT=93600.0s realT=99s; (s/r): 945.4545454545455
2019-05-28 14:30:42,427  INFO Gbl:58 used RAM: 3747866856B = 3660026kB = 3574MB  free: 1241257752B = 1183MB  total: 4989124608B = 4758MB
2019-05-28 14:30:43,105  INFO QNetsimEngine:346 SIMULATION (QNetsimEngine) AT 33:00:00 : #links=116 #nodes=138
2019-05-28 14:30:43,105  INFO QSim:505 SIMULATION (NEW QSim) AT 33:00:00 : #Veh=14245 lost=0 simT=97200.0s realT=100s; (s/r): 972.0
2019-05-28 14:30:43,105  INFO Gbl:58 used RAM: 3844569896B = 3754462kB = 3666MB  free: 1144554712B = 1091MB  total: 4989124608B = 4758MB
2019-05-28 14:30:43,726  INFO QNetsimEngine:346 SIMULATION (QNetsimEngine) AT 34:00:00 : #links=106 #nodes=124
2019-05-28 14:30:43,726  INFO QSim:505 SIMULATION (NEW QSim) AT 34:00:00 : #Veh=13317 lost=0 simT=100800.0s realT=101s; (s/r): 998.019801980198
2019-05-28 14:30:43,726  INFO Gbl:58 used RAM: 3904946336B = 3813424kB = 3724MB  free: 1084178272B = 1033MB  total: 4989124608B = 4758MB
2019-05-28 14:30:44,334  INFO QNetsimEngine:346 SIMULATION (QNetsimEngine) AT 35:00:00 : #links=95 #nodes=103
2019-05-28 14:30:44,335  INFO QSim:505 SIMULATION (NEW QSim) AT 35:00:00 : #Veh=12468 lost=0 simT=104400.0s realT=101s; (s/r): 1033.6633663366338
2019-05-28 14:30:44,335  INFO Gbl:58 used RAM: 3981744224B = 3888422kB = 3797MB  free: 1007380384B = 960MB  total: 4989124608B = 4758MB
2019-05-28 14:30:44,832  INFO QNetsimEngine:346 SIMULATION (QNetsimEngine) AT 36:00:00 : #links=100 #nodes=104
2019-05-28 14:30:44,832  INFO QSim:505 SIMULATION (NEW QSim) AT 36:00:00 : #Veh=11682 lost=0 simT=108000.0s realT=102s; (s/r): 1058.8235294117646
2019-05-28 14:30:44,833  INFO Gbl:58 used RAM: 4042785304B = 3948032kB = 3855MB  free: 946339304B = 902MB  total: 4989124608B = 4758MB
2019-05-28 14:30:45,300  INFO QNetsimEngine:346 SIMULATION (QNetsimEngine) AT 37:00:00 : #links=74 #nodes=75
2019-05-28 14:30:45,301  INFO QSim:505 SIMULATION (NEW QSim) AT 37:00:00 : #Veh=11140 lost=0 simT=111600.0s realT=102s; (s/r): 1094.1176470588234
2019-05-28 14:30:45,301  INFO Gbl:58 used RAM: 4083257640B = 3987556kB = 3894MB  free: 905866968B = 863MB  total: 4989124608B = 4758MB
2019-05-28 14:30:45,863  INFO QNetsimEngine:346 SIMULATION (QNetsimEngine) AT 38:00:00 : #links=68 #nodes=64
2019-05-28 14:30:45,863  INFO QSim:505 SIMULATION (NEW QSim) AT 38:00:00 : #Veh=10669 lost=0 simT=115200.0s realT=103s; (s/r): 1118.4466019417475
2019-05-28 14:30:45,863  INFO Gbl:58 used RAM: 3192701368B = 3117872kB = 3044MB  free: 1853046344B = 1767MB  total: 5045747712B = 4812MB
2019-05-28 14:30:46,229  INFO QNetsimEngine:346 SIMULATION (QNetsimEngine) AT 39:00:00 : #links=53 #nodes=56
2019-05-28 14:30:46,229  INFO QSim:505 SIMULATION (NEW QSim) AT 39:00:00 : #Veh=10336 lost=0 simT=118800.0s realT=103s; (s/r): 1153.3980582524273
2019-05-28 14:30:46,229  INFO Gbl:58 used RAM: 3212922488B = 3137619kB = 3064MB  free: 1832825224B = 1747MB  total: 5045747712B = 4812MB
2019-05-28 14:30:46,577  INFO QNetsimEngine:346 SIMULATION (QNetsimEngine) AT 40:00:00 : #links=59 #nodes=61
2019-05-28 14:30:46,577  INFO QSim:505 SIMULATION (NEW QSim) AT 40:00:00 : #Veh=10031 lost=0 simT=122400.0s realT=103s; (s/r): 1188.3495145631068
2019-05-28 14:30:46,578  INFO Gbl:58 used RAM: 3250076896B = 3173903kB = 3099MB  free: 1795670816B = 1712MB  total: 5045747712B = 4812MB
2019-05-28 14:30:46,918  INFO QNetsimEngine:346 SIMULATION (QNetsimEngine) AT 41:00:00 : #links=51 #nodes=49
2019-05-28 14:30:46,918  INFO QSim:505 SIMULATION (NEW QSim) AT 41:00:00 : #Veh=9730 lost=0 simT=126000.0s realT=104s; (s/r): 1211.5384615384614
2019-05-28 14:30:46,918  INFO Gbl:58 used RAM: 3270297984B = 3193650kB = 3118MB  free: 1775449728B = 1693MB  total: 5045747712B = 4812MB
2019-05-28 14:30:47,266  INFO QNetsimEngine:346 SIMULATION (QNetsimEngine) AT 42:00:00 : #links=54 #nodes=54
2019-05-28 14:30:47,266  INFO QSim:505 SIMULATION (NEW QSim) AT 42:00:00 : #Veh=9448 lost=0 simT=129600.0s realT=104s; (s/r): 1246.1538461538462
2019-05-28 14:30:47,266  INFO Gbl:58 used RAM: 3310740168B = 3233144kB = 3157MB  free: 1735007544B = 1654MB  total: 5045747712B = 4812MB
2019-05-28 14:30:47,590  INFO QNetsimEngine:346 SIMULATION (QNetsimEngine) AT 43:00:00 : #links=54 #nodes=56
2019-05-28 14:30:47,590  INFO QSim:505 SIMULATION (NEW QSim) AT 43:00:00 : #Veh=9237 lost=0 simT=133200.0s realT=104s; (s/r): 1280.7692307692307
2019-05-28 14:30:47,591  INFO Gbl:58 used RAM: 3330961248B = 3252891kB = 3176MB  free: 1714786464B = 1635MB  total: 5045747712B = 4812MB
2019-05-28 14:30:47,909  INFO QNetsimEngine:346 SIMULATION (QNetsimEngine) AT 44:00:00 : #links=44 #nodes=46
2019-05-28 14:30:47,909  INFO QSim:505 SIMULATION (NEW QSim) AT 44:00:00 : #Veh=9031 lost=0 simT=136800.0s realT=105s; (s/r): 1302.857142857143
2019-05-28 14:30:47,909  INFO Gbl:58 used RAM: 3351680800B = 3273125kB = 3196MB  free: 1694066912B = 1615MB  total: 5045747712B = 4812MB
2019-05-28 14:30:48,223  INFO QNetsimEngine:346 SIMULATION (QNetsimEngine) AT 45:00:00 : #links=40 #nodes=37
2019-05-28 14:30:48,224  INFO QSim:505 SIMULATION (NEW QSim) AT 45:00:00 : #Veh=8825 lost=0 simT=140400.0s realT=105s; (s/r): 1337.142857142857
2019-05-28 14:30:48,224  INFO Gbl:58 used RAM: 3388835328B = 3309409kB = 3231MB  free: 1656912384B = 1580MB  total: 5045747712B = 4812MB
2019-05-28 14:30:48,519  INFO QNetsimEngine:346 SIMULATION (QNetsimEngine) AT 46:00:00 : #links=38 #nodes=48
2019-05-28 14:30:48,520  INFO QSim:505 SIMULATION (NEW QSim) AT 46:00:00 : #Veh=8629 lost=0 simT=144000.0s realT=105s; (s/r): 1371.4285714285713
2019-05-28 14:30:48,520  INFO Gbl:58 used RAM: 3409056416B = 3329156kB = 3251MB  free: 1636691296B = 1560MB  total: 5045747712B = 4812MB
2019-05-28 14:30:48,821  INFO QNetsimEngine:346 SIMULATION (QNetsimEngine) AT 47:00:00 : #links=40 #nodes=43
2019-05-28 14:30:48,821  INFO QSim:505 SIMULATION (NEW QSim) AT 47:00:00 : #Veh=8422 lost=0 simT=147600.0s realT=106s; (s/r): 1392.4528301886792
2019-05-28 14:30:48,821  INFO Gbl:58 used RAM: 3429775816B = 3349390kB = 3270MB  free: 1615971896B = 1541MB  total: 5045747712B = 4812MB
2019-05-28 14:30:49,124  INFO QNetsimEngine:346 SIMULATION (QNetsimEngine) AT 48:00:00 : #links=41 #nodes=46
2019-05-28 14:30:49,125  INFO QSim:505 SIMULATION (NEW QSim) AT 48:00:00 : #Veh=8227 lost=0 simT=151200.0s realT=106s; (s/r): 1426.4150943396226
2019-05-28 14:30:49,125  INFO Gbl:58 used RAM: 3449997544B = 3369138kB = 3290MB  free: 1595750168B = 1521MB  total: 5045747712B = 4812MB
2019-05-28 14:30:49,435  INFO QNetsimEngine:346 SIMULATION (QNetsimEngine) AT 49:00:00 : #links=40 #nodes=43
2019-05-28 14:30:49,435  INFO QSim:505 SIMULATION (NEW QSim) AT 49:00:00 : #Veh=8043 lost=0 simT=154800.0s realT=106s; (s/r): 1460.377358490566
2019-05-28 14:30:49,435  INFO Gbl:58 used RAM: 3487151472B = 3405421kB = 3325MB  free: 1558596240B = 1486MB  total: 5045747712B = 4812MB
2019-05-28 14:30:49,729  INFO QNetsimEngine:346 SIMULATION (QNetsimEngine) AT 50:00:00 : #links=40 #nodes=45
2019-05-28 14:30:49,729  INFO QSim:505 SIMULATION (NEW QSim) AT 50:00:00 : #Veh=7861 lost=0 simT=158400.0s realT=107s; (s/r): 1480.3738317757009
2019-05-28 14:30:49,729  INFO Gbl:58 used RAM: 3507373816B = 3425169kB = 3344MB  free: 1538373896B = 1467MB  total: 5045747712B = 4812MB
2019-05-28 14:30:50,016  INFO QNetsimEngine:346 SIMULATION (QNetsimEngine) AT 51:00:00 : #links=41 #nodes=47
2019-05-28 14:30:50,017  INFO QSim:505 SIMULATION (NEW QSim) AT 51:00:00 : #Veh=7690 lost=0 simT=162000.0s realT=107s; (s/r): 1514.018691588785
2019-05-28 14:30:50,017  INFO Gbl:58 used RAM: 3528093368B = 3445403kB = 3364MB  free: 1517654344B = 1447MB  total: 5045747712B = 4812MB
2019-05-28 14:30:50,315  INFO QNetsimEngine:346 SIMULATION (QNetsimEngine) AT 52:00:00 : #links=38 #nodes=37
2019-05-28 14:30:50,315  INFO QSim:505 SIMULATION (NEW QSim) AT 52:00:00 : #Veh=7491 lost=0 simT=165600.0s realT=107s; (s/r): 1547.6635514018692
2019-05-28 14:30:50,316  INFO Gbl:58 used RAM: 3548813624B = 3465638kB = 3384MB  free: 1496934088B = 1427MB  total: 5045747712B = 4812MB
2019-05-28 14:30:50,598  INFO QNetsimEngine:346 SIMULATION (QNetsimEngine) AT 53:00:00 : #links=37 #nodes=40
2019-05-28 14:30:50,598  INFO QSim:505 SIMULATION (NEW QSim) AT 53:00:00 : #Veh=7302 lost=0 simT=169200.0s realT=107s; (s/r): 1581.3084112149534
2019-05-28 14:30:50,598  INFO Gbl:58 used RAM: 3569034760B = 3485385kB = 3403MB  free: 1476712952B = 1408MB  total: 5045747712B = 4812MB
2019-05-28 14:30:50,883  INFO QNetsimEngine:346 SIMULATION (QNetsimEngine) AT 54:00:00 : #links=39 #nodes=42
2019-05-28 14:30:50,883  INFO QSim:505 SIMULATION (NEW QSim) AT 54:00:00 : #Veh=7137 lost=0 simT=172800.0s realT=108s; (s/r): 1600.0
2019-05-28 14:30:50,883  INFO Gbl:58 used RAM: 3589754144B = 3505619kB = 3423MB  free: 1455993568B = 1388MB  total: 5045747712B = 4812MB
2019-05-28 14:30:51,183  INFO QNetsimEngine:346 SIMULATION (QNetsimEngine) AT 55:00:00 : #links=33 #nodes=38
2019-05-28 14:30:51,184  INFO QSim:505 SIMULATION (NEW QSim) AT 55:00:00 : #Veh=6978 lost=0 simT=176400.0s realT=108s; (s/r): 1633.3333333333333
2019-05-28 14:30:51,184  INFO Gbl:58 used RAM: 3609975232B = 3525366kB = 3442MB  free: 1435772480B = 1369MB  total: 5045747712B = 4812MB
2019-05-28 14:30:51,448  INFO QNetsimEngine:346 SIMULATION (QNetsimEngine) AT 56:00:00 : #links=27 #nodes=38
2019-05-28 14:30:51,449  INFO QSim:505 SIMULATION (NEW QSim) AT 56:00:00 : #Veh=6829 lost=0 simT=180000.0s realT=108s; (s/r): 1666.6666666666667
2019-05-28 14:30:51,449  INFO Gbl:58 used RAM: 3630695592B = 3545601kB = 3462MB  free: 1415052120B = 1349MB  total: 5045747712B = 4812MB
2019-05-28 14:30:51,714  INFO QNetsimEngine:346 SIMULATION (QNetsimEngine) AT 57:00:00 : #links=28 #nodes=35
2019-05-28 14:30:51,715  INFO QSim:505 SIMULATION (NEW QSim) AT 57:00:00 : #Veh=6677 lost=0 simT=183600.0s realT=109s; (s/r): 1684.4036697247707
2019-05-28 14:30:51,715  INFO Gbl:58 used RAM: 3650916680B = 3565348kB = 3481MB  free: 1394831032B = 1330MB  total: 5045747712B = 4812MB
2019-05-28 14:30:51,981  INFO QNetsimEngine:346 SIMULATION (QNetsimEngine) AT 58:00:00 : #links=25 #nodes=31
2019-05-28 14:30:51,981  INFO QSim:505 SIMULATION (NEW QSim) AT 58:00:00 : #Veh=6523 lost=0 simT=187200.0s realT=109s; (s/r): 1717.4311926605506
2019-05-28 14:30:51,981  INFO Gbl:58 used RAM: 3671636736B = 3585582kB = 3501MB  free: 1374110976B = 1310MB  total: 5045747712B = 4812MB
2019-05-28 14:30:52,253  INFO QNetsimEngine:346 SIMULATION (QNetsimEngine) AT 59:00:00 : #links=27 #nodes=32
2019-05-28 14:30:52,253  INFO QSim:505 SIMULATION (NEW QSim) AT 59:00:00 : #Veh=6372 lost=0 simT=190800.0s realT=109s; (s/r): 1750.4587155963302
2019-05-28 14:30:52,253  INFO Gbl:58 used RAM: 3692357192B = 3605817kB = 3521MB  free: 1353390520B = 1290MB  total: 5045747712B = 4812MB
2019-05-28 14:30:52,510  INFO QNetsimEngine:346 SIMULATION (QNetsimEngine) AT 60:00:00 : #links=23 #nodes=27
2019-05-28 14:30:52,510  INFO QSim:505 SIMULATION (NEW QSim) AT 60:00:00 : #Veh=6219 lost=0 simT=194400.0s realT=109s; (s/r): 1783.48623853211
2019-05-28 14:30:52,510  INFO Gbl:58 used RAM: 3709289976B = 3622353kB = 3537MB  free: 1336457736B = 1274MB  total: 5045747712B = 4812MB
2019-05-28 14:30:52,740  INFO QNetsimEngine:346 SIMULATION (QNetsimEngine) AT 61:00:00 : #links=13 #nodes=19
2019-05-28 14:30:52,740  INFO QSim:505 SIMULATION (NEW QSim) AT 61:00:00 : #Veh=6070 lost=0 simT=198000.0s realT=110s; (s/r): 1800.0
2019-05-28 14:30:52,740  INFO Gbl:58 used RAM: 3730010320B = 3642588kB = 3557MB  free: 1315737392B = 1254MB  total: 5045747712B = 4812MB
2019-05-28 14:30:52,974  INFO QNetsimEngine:346 SIMULATION (QNetsimEngine) AT 62:00:00 : #links=16 #nodes=26
2019-05-28 14:30:52,974  INFO QSim:505 SIMULATION (NEW QSim) AT 62:00:00 : #Veh=5923 lost=0 simT=201600.0s realT=110s; (s/r): 1832.7272727272727
2019-05-28 14:30:52,974  INFO Gbl:58 used RAM: 3750231880B = 3662335kB = 3576MB  free: 1295515832B = 1235MB  total: 5045747712B = 4812MB
2019-05-28 14:30:53,220  INFO QNetsimEngine:346 SIMULATION (QNetsimEngine) AT 63:00:00 : #links=13 #nodes=21
2019-05-28 14:30:53,220  INFO QSim:505 SIMULATION (NEW QSim) AT 63:00:00 : #Veh=5770 lost=0 simT=205200.0s realT=110s; (s/r): 1865.4545454545455
2019-05-28 14:30:53,220  INFO Gbl:58 used RAM: 3754516784B = 3666520kB = 3580MB  free: 1291230928B = 1231MB  total: 5045747712B = 4812MB
2019-05-28 14:30:53,448  INFO QNetsimEngine:346 SIMULATION (QNetsimEngine) AT 64:00:00 : #links=14 #nodes=23
2019-05-28 14:30:53,448  INFO QSim:505 SIMULATION (NEW QSim) AT 64:00:00 : #Veh=5621 lost=0 simT=208800.0s realT=110s; (s/r): 1898.1818181818182
2019-05-28 14:30:53,448  INFO Gbl:58 used RAM: 3774737896B = 3686267kB = 3599MB  free: 1271009816B = 1212MB  total: 5045747712B = 4812MB
2019-05-28 14:30:53,677  INFO QNetsimEngine:346 SIMULATION (QNetsimEngine) AT 65:00:00 : #links=17 #nodes=29
2019-05-28 14:30:53,677  INFO QSim:505 SIMULATION (NEW QSim) AT 65:00:00 : #Veh=5474 lost=0 simT=212400.0s realT=110s; (s/r): 1930.909090909091
2019-05-28 14:30:53,677  INFO Gbl:58 used RAM: 3792169120B = 3703290kB = 3616MB  free: 1253578592B = 1195MB  total: 5045747712B = 4812MB
2019-05-28 14:30:53,910  INFO QNetsimEngine:346 SIMULATION (QNetsimEngine) AT 66:00:00 : #links=11 #nodes=17
2019-05-28 14:30:53,910  INFO QSim:505 SIMULATION (NEW QSim) AT 66:00:00 : #Veh=5318 lost=0 simT=216000.0s realT=111s; (s/r): 1945.945945945946
2019-05-28 14:30:53,910  INFO Gbl:58 used RAM: 3812889704B = 3723525kB = 3636MB  free: 1232858008B = 1175MB  total: 5045747712B = 4812MB
2019-05-28 14:30:54,129  INFO QNetsimEngine:346 SIMULATION (QNetsimEngine) AT 67:00:00 : #links=13 #nodes=21
2019-05-28 14:30:54,129  INFO QSim:505 SIMULATION (NEW QSim) AT 67:00:00 : #Veh=5170 lost=0 simT=219600.0s realT=111s; (s/r): 1978.3783783783783
2019-05-28 14:30:54,129  INFO Gbl:58 used RAM: 3816677072B = 3727223kB = 3639MB  free: 1229070640B = 1172MB  total: 5045747712B = 4812MB
2019-05-28 14:30:54,365  INFO QNetsimEngine:346 SIMULATION (QNetsimEngine) AT 68:00:00 : #links=11 #nodes=16
2019-05-28 14:30:54,366  INFO QSim:505 SIMULATION (NEW QSim) AT 68:00:00 : #Veh=5018 lost=0 simT=223200.0s realT=111s; (s/r): 2010.8108108108108
2019-05-28 14:30:54,366  INFO Gbl:58 used RAM: 3837397104B = 3747458kB = 3659MB  free: 1208350608B = 1152MB  total: 5045747712B = 4812MB
2019-05-28 14:30:54,591  INFO QNetsimEngine:346 SIMULATION (QNetsimEngine) AT 69:00:00 : #links=13 #nodes=21
2019-05-28 14:30:54,592  INFO QSim:505 SIMULATION (NEW QSim) AT 69:00:00 : #Veh=4870 lost=0 simT=226800.0s realT=111s; (s/r): 2043.2432432432433
2019-05-28 14:30:54,592  INFO Gbl:58 used RAM: 3837895376B = 3747944kB = 3660MB  free: 1207852336B = 1151MB  total: 5045747712B = 4812MB
2019-05-28 14:30:54,805  INFO QNetsimEngine:346 SIMULATION (QNetsimEngine) AT 70:00:00 : #links=7 #nodes=12
2019-05-28 14:30:54,805  INFO QSim:505 SIMULATION (NEW QSim) AT 70:00:00 : #Veh=4717 lost=0 simT=230400.0s realT=112s; (s/r): 2057.1428571428573
2019-05-28 14:30:54,805  INFO Gbl:58 used RAM: 3858614792B = 3768178kB = 3679MB  free: 1187132920B = 1132MB  total: 5045747712B = 4812MB
2019-05-28 14:30:55,017  INFO QNetsimEngine:346 SIMULATION (QNetsimEngine) AT 71:00:00 : #links=7 #nodes=12
2019-05-28 14:30:55,018  INFO QSim:505 SIMULATION (NEW QSim) AT 71:00:00 : #Veh=4567 lost=0 simT=234000.0s realT=112s; (s/r): 2089.285714285714
2019-05-28 14:30:55,018  INFO Gbl:58 used RAM: 3878835880B = 3787925kB = 3699MB  free: 1166911832B = 1112MB  total: 5045747712B = 4812MB
2019-05-28 14:30:55,238  INFO QNetsimEngine:346 SIMULATION (QNetsimEngine) AT 72:00:00 : #links=7 #nodes=12
2019-05-28 14:30:55,238  INFO QSim:505 SIMULATION (NEW QSim) AT 72:00:00 : #Veh=4417 lost=0 simT=237600.0s realT=112s; (s/r): 2121.4285714285716
2019-05-28 14:30:55,238  INFO Gbl:58 used RAM: 3879832560B = 3788898kB = 3700MB  free: 1165915152B = 1111MB  total: 5045747712B = 4812MB
[...]
2019-05-28 14:30:56,530  INFO QNetsimEngine:346 SIMULATION (QNetsimEngine) AT 78:00:00 : #links=8 #nodes=14
2019-05-28 14:30:56,530  INFO QSim:505 SIMULATION (NEW QSim) AT 78:00:00 : #Veh=3518 lost=0 simT=259200.0s realT=113s; (s/r): 2293.8053097345132
2019-05-28 14:30:56,530  INFO Gbl:58 used RAM: 3963214040B = 3870326kB = 3779MB  free: 1082533672B = 1032MB  total: 5045747712B = 4812MB
2019-05-28 14:30:56,747  INFO QNetsimEngine:346 SIMULATION (QNetsimEngine) AT 79:00:00 : #links=8 #nodes=11
2019-05-28 14:30:56,747  INFO QSim:505 SIMULATION (NEW QSim) AT 79:00:00 : #Veh=3368 lost=0 simT=262800.0s realT=114s; (s/r): 2305.2631578947367
2019-05-28 14:30:56,748  INFO Gbl:58 used RAM: 3967499816B = 3874511kB = 3783MB  free: 1078247896B = 1028MB  total: 5045747712B = 4812MB
2019-05-28 14:30:56,961  INFO QNetsimEngine:346 SIMULATION (QNetsimEngine) AT 80:00:00 : #links=6 #nodes=10
2019-05-28 14:30:56,961  INFO QSim:505 SIMULATION (NEW QSim) AT 80:00:00 : #Veh=3216 lost=0 simT=266400.0s realT=114s; (s/r): 2336.842105263158
2019-05-28 14:30:56,961  INFO Gbl:58 used RAM: 3988224848B = 3894750kB = 3803MB  free: 1057522864B = 1008MB  total: 5045747712B = 4812MB
2019-05-28 14:30:57,185  INFO QNetsimEngine:346 SIMULATION (QNetsimEngine) AT 81:00:00 : #links=8 #nodes=14
2019-05-28 14:30:57,185  INFO QSim:505 SIMULATION (NEW QSim) AT 81:00:00 : #Veh=3068 lost=0 simT=270000.0s realT=114s; (s/r): 2368.4210526315787
2019-05-28 14:30:57,185  INFO Gbl:58 used RAM: 3988723120B = 3895237kB = 3803MB  free: 1057024592B = 1008MB  total: 5045747712B = 4812MB
2019-05-28 14:30:57,400  INFO QNetsimEngine:346 SIMULATION (QNetsimEngine) AT 82:00:00 : #links=7 #nodes=12
2019-05-28 14:30:57,400  INFO QSim:505 SIMULATION (NEW QSim) AT 82:00:00 : #Veh=2917 lost=0 simT=273600.0s realT=114s; (s/r): 2400.0
2019-05-28 14:30:57,400  INFO Gbl:58 used RAM: 4009442520B = 3915471kB = 3823MB  free: 1036305192B = 988MB  total: 5045747712B = 4812MB
2019-05-28 14:30:57,617  INFO QNetsimEngine:346 SIMULATION (QNetsimEngine) AT 83:00:00 : #links=9 #nodes=16
2019-05-28 14:30:57,617  INFO QSim:505 SIMULATION (NEW QSim) AT 83:00:00 : #Veh=2769 lost=0 simT=277200.0s realT=114s; (s/r): 2431.5789473684213
2019-05-28 14:30:57,617  INFO Gbl:58 used RAM: 4009940816B = 3915957kB = 3824MB  free: 1035806896B = 987MB  total: 5045747712B = 4812MB
2019-05-28 14:30:57,832  INFO QNetsimEngine:346 SIMULATION (QNetsimEngine) AT 84:00:00 : #links=8 #nodes=13
2019-05-28 14:30:57,832  INFO QSim:505 SIMULATION (NEW QSim) AT 84:00:00 : #Veh=2618 lost=0 simT=280800.0s realT=115s; (s/r): 2441.7391304347825
2019-05-28 14:30:57,832  INFO Gbl:58 used RAM: 4030660192B = 3936191kB = 3843MB  free: 1015087520B = 968MB  total: 5045747712B = 4812MB
2019-05-28 14:30:58,046  INFO QNetsimEngine:346 SIMULATION (QNetsimEngine) AT 85:00:00 : #links=11 #nodes=20
2019-05-28 14:30:58,047  INFO QSim:505 SIMULATION (NEW QSim) AT 85:00:00 : #Veh=2471 lost=0 simT=284400.0s realT=115s; (s/r): 2473.0434782608695
2019-05-28 14:30:58,047  INFO Gbl:58 used RAM: 4050881304B = 3955938kB = 3863MB  free: 994866408B = 948MB  total: 5045747712B = 4812MB
2019-05-28 14:30:58,282  INFO QNetsimEngine:346 SIMULATION (QNetsimEngine) AT 86:00:00 : #links=10 #nodes=18
2019-05-28 14:30:58,283  INFO QSim:505 SIMULATION (NEW QSim) AT 86:00:00 : #Veh=2320 lost=0 simT=288000.0s realT=115s; (s/r): 2504.3478260869565
2019-05-28 14:30:58,283  INFO Gbl:58 used RAM: 4055166272B = 3960123kB = 3867MB  free: 990581440B = 944MB  total: 5045747712B = 4812MB
2019-05-28 14:30:58,507  INFO QNetsimEngine:346 SIMULATION (QNetsimEngine) AT 87:00:00 : #links=13 #nodes=23
2019-05-28 14:30:58,507  INFO QSim:505 SIMULATION (NEW QSim) AT 87:00:00 : #Veh=2172 lost=0 simT=291600.0s realT=115s; (s/r): 2535.6521739130435
2019-05-28 14:30:58,507  INFO Gbl:58 used RAM: 4072603016B = 3977151kB = 3883MB  free: 973144696B = 928MB  total: 5045747712B = 4812MB
2019-05-28 14:30:58,723  INFO QNetsimEngine:346 SIMULATION (QNetsimEngine) AT 88:00:00 : #links=13 #nodes=22
2019-05-28 14:30:58,723  INFO QSim:505 SIMULATION (NEW QSim) AT 88:00:00 : #Veh=2023 lost=0 simT=295200.0s realT=116s; (s/r): 2544.8275862068967
2019-05-28 14:30:58,723  INFO Gbl:58 used RAM: 4076389592B = 3980849kB = 3887MB  free: 969358120B = 924MB  total: 5045747712B = 4812MB
2019-05-28 14:30:58,955  INFO QNetsimEngine:346 SIMULATION (QNetsimEngine) AT 89:00:00 : #links=11 #nodes=20
2019-05-28 14:30:58,955  INFO QSim:505 SIMULATION (NEW QSim) AT 89:00:00 : #Veh=1871 lost=0 simT=298800.0s realT=116s; (s/r): 2575.862068965517
2019-05-28 14:30:58,956  INFO Gbl:58 used RAM: 4097109936B = 4001083kB = 3907MB  free: 948637776B = 904MB  total: 5045747712B = 4812MB
2019-05-28 14:30:59,187  INFO QNetsimEngine:346 SIMULATION (QNetsimEngine) AT 90:00:00 : #links=13 #nodes=21
2019-05-28 14:30:59,187  INFO QSim:505 SIMULATION (NEW QSim) AT 90:00:00 : #Veh=1723 lost=0 simT=302400.0s realT=116s; (s/r): 2606.896551724138
2019-05-28 14:30:59,187  INFO Gbl:58 used RAM: 4117331040B = 4020831kB = 3926MB  free: 928416672B = 885MB  total: 5045747712B = 4812MB
2019-05-28 14:30:59,587  INFO QNetsimEngine:346 SIMULATION (QNetsimEngine) AT 91:00:00 : #links=11 #nodes=20
2019-05-28 14:30:59,587  INFO QSim:505 SIMULATION (NEW QSim) AT 91:00:00 : #Veh=1571 lost=0 simT=306000.0s realT=116s; (s/r): 2637.9310344827586
2019-05-28 14:30:59,587  INFO Gbl:58 used RAM: 3203026600B = 3127955kB = 3054MB  free: 1876799832B = 1789MB  total: 5079826432B = 4844MB
2019-05-28 14:30:59,809  INFO QNetsimEngine:346 SIMULATION (QNetsimEngine) AT 92:00:00 : #links=10 #nodes=16
2019-05-28 14:30:59,809  INFO QSim:505 SIMULATION (NEW QSim) AT 92:00:00 : #Veh=1420 lost=0 simT=309600.0s realT=117s; (s/r): 2646.153846153846
2019-05-28 14:30:59,809  INFO Gbl:58 used RAM: 3206782376B = 3131623kB = 3058MB  free: 1873044056B = 1786MB  total: 5079826432B = 4844MB
2019-05-28 14:31:00,025  INFO QNetsimEngine:346 SIMULATION (QNetsimEngine) AT 93:00:00 : #links=10 #nodes=16
2019-05-28 14:31:00,025  INFO QSim:505 SIMULATION (NEW QSim) AT 93:00:00 : #Veh=1270 lost=0 simT=313200.0s realT=117s; (s/r): 2676.923076923077
2019-05-28 14:31:00,025  INFO Gbl:58 used RAM: 3223760232B = 3148203kB = 3074MB  free: 1856066200B = 1770MB  total: 5079826432B = 4844MB
2019-05-28 14:31:00,242  INFO QNetsimEngine:346 SIMULATION (QNetsimEngine) AT 94:00:00 : #links=8 #nodes=14
2019-05-28 14:31:00,242  INFO QSim:505 SIMULATION (NEW QSim) AT 94:00:00 : #Veh=1118 lost=0 simT=316800.0s realT=117s; (s/r): 2707.6923076923076
2019-05-28 14:31:00,242  INFO Gbl:58 used RAM: 3243284048B = 3167269kB = 3093MB  free: 1836542384B = 1751MB  total: 5079826432B = 4844MB
2019-05-28 14:31:00,441  INFO QNetsimEngine:346 SIMULATION (QNetsimEngine) AT 95:00:00 : #links=6 #nodes=10
2019-05-28 14:31:00,441  INFO QSim:505 SIMULATION (NEW QSim) AT 95:00:00 : #Veh=966 lost=0 simT=320400.0s realT=117s; (s/r): 2738.4615384615386
2019-05-28 14:31:00,441  INFO Gbl:58 used RAM: 3247038872B = 3170936kB = 3096MB  free: 1832787560B = 1747MB  total: 5079826432B = 4844MB
2019-05-28 14:31:00,629  INFO QNetsimEngine:346 SIMULATION (QNetsimEngine) AT 96:00:00 : #links=6 #nodes=10
2019-05-28 14:31:00,629  INFO QSim:505 SIMULATION (NEW QSim) AT 96:00:00 : #Veh=816 lost=0 simT=324000.0s realT=117s; (s/r): 2769.230769230769
2019-05-28 14:31:00,629  INFO Gbl:58 used RAM: 3263412184B = 3186925kB = 3112MB  free: 1816414248B = 1732MB  total: 5079826432B = 4844MB
2019-05-28 14:31:00,815  INFO QNetsimEngine:346 SIMULATION (QNetsimEngine) AT 97:00:00 : #links=7 #nodes=12
2019-05-28 14:31:00,816  INFO QSim:505 SIMULATION (NEW QSim) AT 97:00:00 : #Veh=667 lost=0 simT=327600.0s realT=118s; (s/r): 2776.271186440678
2019-05-28 14:31:00,816  INFO Gbl:58 used RAM: 3267776880B = 3191188kB = 3116MB  free: 1812049552B = 1728MB  total: 5079826432B = 4844MB
2019-05-28 14:31:01,005  INFO QNetsimEngine:346 SIMULATION (QNetsimEngine) AT 98:00:00 : #links=6 #nodes=10
2019-05-28 14:31:01,005  INFO QSim:505 SIMULATION (NEW QSim) AT 98:00:00 : #Veh=516 lost=0 simT=331200.0s realT=118s; (s/r): 2806.7796610169494
2019-05-28 14:31:01,005  INFO Gbl:58 used RAM: 3268381232B = 3191778kB = 3116MB  free: 1811445200B = 1727MB  total: 5079826432B = 4844MB
2019-05-28 14:31:01,194  INFO QNetsimEngine:346 SIMULATION (QNetsimEngine) AT 99:00:00 : #links=5 #nodes=8
2019-05-28 14:31:01,194  INFO QSim:505 SIMULATION (NEW QSim) AT 99:00:00 : #Veh=365 lost=0 simT=334800.0s realT=118s; (s/r): 2837.2881355932204
2019-05-28 14:31:01,194  INFO Gbl:58 used RAM: 3287905856B = 3210845kB = 3135MB  free: 1791920576B = 1708MB  total: 5079826432B = 4844MB
2019-05-28 14:31:01,384  INFO QNetsimEngine:346 SIMULATION (QNetsimEngine) AT 100:00:00 : #links=6 #nodes=10
2019-05-28 14:31:01,384  INFO QSim:505 SIMULATION (NEW QSim) AT 100:00:00 : #Veh=216 lost=0 simT=338400.0s realT=118s; (s/r): 2867.7966101694915
2019-05-28 14:31:01,384  INFO Gbl:58 used RAM: 3289114632B = 3212026kB = 3136MB  free: 1790711800B = 1707MB  total: 5079826432B = 4844MB
2019-05-28 14:31:01,575  INFO QNetsimEngine:346 SIMULATION (QNetsimEngine) AT 101:00:00 : #links=7 #nodes=12
2019-05-28 14:31:01,576  INFO QSim:505 SIMULATION (NEW QSim) AT 101:00:00 : #Veh=67 lost=0 simT=342000.0s realT=118s; (s/r): 2898.3050847457625
2019-05-28 14:31:01,576  INFO Gbl:58 used RAM: 3308638440B = 3231092kB = 3155MB  free: 1771187992B = 1689MB  total: 5079826432B = 4844MB
2019-05-28 14:31:01,674  INFO Gbl:191 Thread performance: Thread=QNetsimEngineRunner_0  cpu-time=101.65625sec
2019-05-28 14:31:01,794  INFO Gbl:191 Thread performance: Thread=class org.matsim.core.events.SimStepParallelEventsManagerImpl$ProcessEventsRunnable0  cpu-time=71.9375sec
2019-05-28 14:31:01,795  INFO AbstractController$9:220 ### ITERATION 0 fires after mobsim event
2019-05-28 14:31:01,795  INFO ControlerListenerManagerImpl:248 calling notifyAfterMobsim on org.matsim.analysis.LegTimesControlerListener
2019-05-28 14:31:01,806  INFO LegTimesControlerListener:50 [0] average trip (probably: leg) duration is: 29823 seconds = 08:17:03
2019-05-28 14:31:01,806  INFO ControlerListenerManagerImpl:248 calling notifyAfterMobsim on org.matsim.core.scoring.EventsToActivities$1
2019-05-28 14:31:01,946  INFO ControlerListenerManagerImpl:251 [it.0] all ControlerAfterMobsimListeners called.
2019-05-28 14:31:01,947  INFO AbstractController$4:149 ### ITERATION 0 fires scoring event
2019-05-28 14:31:01,947  INFO ControlerListenerManagerImpl:183 calling notifyScoring on org.matsim.core.scoring.PlansScoringImpl
2019-05-28 14:31:02,006  INFO NewScoreAssignerImpl:36 it: 0 msaStart: null
2019-05-28 14:31:02,067  INFO ControlerListenerManagerImpl:194 [it.0] all ControlerScoringListeners called.
2019-05-28 14:31:02,068  INFO AbstractController$5:157 ### ITERATION 0 fires iteration end event
2019-05-28 14:31:02,068  INFO ControlerListenerManagerImpl:160 calling notifyIterationEnds on org.matsim.core.controler.corelisteners.EventsHandlingImpl
2019-05-28 14:31:02,068  INFO ControlerListenerManagerImpl:160 calling notifyIterationEnds on org.matsim.core.scoring.PlansScoringImpl
2019-05-28 14:31:02,106  INFO ControlerListenerManagerImpl:167 calling notifyIterationEnds on org.matsim.counts.CountsControlerListener
2019-05-28 14:31:02,106  INFO ControlerListenerManagerImpl:167 calling notifyIterationEnds on org.matsim.analysis.ModeStatsControlerListener
2019-05-28 14:31:02,192  INFO ModeStatsControlerListener:155 -- mode share of mode bike = 0.0
2019-05-28 14:31:02,192  INFO ModeStatsControlerListener:155 -- mode share of mode car = 1.0
2019-05-28 14:31:02,192  INFO ModeStatsControlerListener:155 -- mode share of mode other = 0.0
2019-05-28 14:31:02,192  INFO ModeStatsControlerListener:155 -- mode share of mode pt = 0.0
2019-05-28 14:31:02,192  INFO ModeStatsControlerListener:155 -- mode share of mode ride = 0.0
2019-05-28 14:31:02,192  INFO ModeStatsControlerListener:155 -- mode share of mode walk = 0.0
2019-05-28 14:31:02,192  INFO ControlerListenerManagerImpl:167 calling notifyIterationEnds on org.matsim.analysis.ScoreStatsControlerListener
2019-05-28 14:31:02,214  INFO ScoreStatsControlerListener:191 -- avg. score of the executed plan of each agent: -160.56873684681133
2019-05-28 14:31:02,214  INFO ScoreStatsControlerListener:192 -- avg. score of the worst plan of each agent: -160.56873684681133
2019-05-28 14:31:02,214  INFO ScoreStatsControlerListener:193 -- avg. of the avg. plan score per agent: -160.56873684681133
2019-05-28 14:31:02,215  INFO ScoreStatsControlerListener:194 -- avg. score of the best plan of each agent: -160.56873684681133
2019-05-28 14:31:02,215  INFO ControlerListenerManagerImpl:167 calling notifyIterationEnds on org.matsim.analysis.TravelDistanceStatsControlerListener
2019-05-28 14:31:02,227  INFO TravelDistanceStats:128 [TravelDistanceStats] using 1 thread(s).
2019-05-28 14:31:02,284  INFO TravelDistanceStats:141 [TravelDistanceStats] all threads finished.
2019-05-28 14:31:02,285  INFO TravelDistanceStats:161 -- average of the average leg distance per plan (executed plans only): 0.2625707072392623
2019-05-28 14:31:02,285  INFO TravelDistanceStats:162 (TravelDistanceStats takes an average over all legs where the simulation reports travelled distances. These are car legs, pt legs,
2019-05-28 14:31:02,285  INFO TravelDistanceStats:163 (and teleported legs whose route contains a distance.)
2019-05-28 14:31:02,285  INFO ControlerListenerManagerImpl:167 calling notifyIterationEnds on org.matsim.analysis.LegHistogramListener
2019-05-28 14:31:02,292  INFO LegHistogramListener:72 number of legs:	125270	100%
2019-05-28 14:31:02,293  INFO LegHistogramListener:79 number of car legs:	125270	100.0%
2019-05-28 14:31:02,846  INFO ControlerListenerManagerImpl:167 calling notifyIterationEnds on org.matsim.analysis.LinkStatsControlerListener
2019-05-28 14:31:02,847  INFO ControlerListenerManagerImpl:171 [it.0] all ControlerIterationEndsListeners called.
2019-05-28 14:31:03,059  INFO AbstractController:167 ### ITERATION 0 ENDS
2019-05-28 14:31:03,059  INFO AbstractController:168 ###################################################
2019-05-28 14:31:03,059  INFO MatsimRuntimeModifications:58 S H U T D O W N   ---   start shutdown.
2019-05-28 14:31:03,059  INFO ControlerListenerManagerImpl:121 calling notifyShutdown on org.matsim.core.controler.corelisteners.EventsHandlingImpl
2019-05-28 14:31:03,059  INFO ControlerListenerManagerImpl:121 calling notifyShutdown on org.matsim.core.controler.corelisteners.DumpDataAtEndImpl
2019-05-28 14:31:03,093  INFO Counter:70 [PopulationWriter] dumped person # 1
2019-05-28 14:31:03,093  INFO Counter:70 [PopulationWriter] dumped person # 2
2019-05-28 14:31:03,094  INFO Counter:70 [PopulationWriter] dumped person # 4
2019-05-28 14:31:03,095  INFO Counter:70 [PopulationWriter] dumped person # 8
2019-05-28 14:31:03,098  INFO Counter:70 [PopulationWriter] dumped person # 16
2019-05-28 14:31:03,103  INFO Counter:70 [PopulationWriter] dumped person # 32
2019-05-28 14:31:03,112  INFO Counter:70 [PopulationWriter] dumped person # 64
2019-05-28 14:31:03,130  INFO Counter:70 [PopulationWriter] dumped person # 128
2019-05-28 14:31:03,166  INFO Counter:70 [PopulationWriter] dumped person # 256
2019-05-28 14:31:03,227  INFO Counter:70 [PopulationWriter] dumped person # 512
2019-05-28 14:31:03,342  INFO Counter:70 [PopulationWriter] dumped person # 1024
2019-05-28 14:31:03,571  INFO Counter:70 [PopulationWriter] dumped person # 2048
2019-05-28 14:31:04,012  INFO Counter:70 [PopulationWriter] dumped person # 4096
2019-05-28 14:31:04,924  INFO Counter:70 [PopulationWriter] dumped person # 8192
2019-05-28 14:31:06,803  INFO Counter:70 [PopulationWriter] dumped person # 16384
2019-05-28 14:31:10,565  INFO Counter:70 [PopulationWriter] dumped person # 32768
2019-05-28 14:31:17,550  INFO PopulationWriter:139 Population written to: ./output/perth_base_2011/perth_base_2011.output_plans.xml.gz
2019-05-28 14:31:17,555  INFO Counter:76 [PopulationWriter] dumped person # 62635
2019-05-28 14:31:17,558  INFO NetworkWriter:69 Writing network to file: ./output/perth_base_2011/perth_base_2011.output_network.xml.gz...
2019-05-28 14:31:20,662  INFO NetworkWriter:72 done.
2019-05-28 14:31:20,673  INFO Config:572 setting context to [file:/C:/projects/imove/silomatsimyan/silo/]
2019-05-28 14:31:20,677  INFO Config:572 setting context to [file:/C:/projects/imove/silomatsimyan/silo/]
2019-05-28 14:31:20,680  INFO Config:572 setting context to [file:/C:/projects/imove/silomatsimyan/silo/]
2019-05-28 14:31:20,683  INFO Config:572 setting context to [file:/C:/projects/imove/silomatsimyan/silo/]
2019-05-28 14:31:20,688  INFO Config:572 setting context to [file:/C:/projects/imove/silomatsimyan/silo/]
2019-05-28 14:31:20,691  INFO Config:572 setting context to [file:/C:/projects/imove/silomatsimyan/silo/]
2019-05-28 14:31:20,694  INFO Config:572 setting context to [file:/C:/projects/imove/silomatsimyan/silo/]
2019-05-28 14:31:20,697  INFO Config:572 setting context to [file:/C:/projects/imove/silomatsimyan/silo/]
2019-05-28 14:31:20,700  INFO Config:572 setting context to [file:/C:/projects/imove/silomatsimyan/silo/]
2019-05-28 14:31:20,702  INFO Config:572 setting context to [file:/C:/projects/imove/silomatsimyan/silo/]
2019-05-28 14:31:20,704  INFO Config:572 setting context to [file:/C:/projects/imove/silomatsimyan/silo/]
2019-05-28 14:31:20,706  INFO Config:572 setting context to [file:/C:/projects/imove/silomatsimyan/silo/]
2019-05-28 14:31:20,710  INFO Config:572 setting context to [file:/C:/projects/imove/silomatsimyan/silo/]
2019-05-28 14:31:20,712  INFO Config:572 setting context to [file:/C:/projects/imove/silomatsimyan/silo/]
2019-05-28 14:31:20,715  INFO Config:572 setting context to [file:/C:/projects/imove/silomatsimyan/silo/]
2019-05-28 14:31:20,717  INFO Config:572 setting context to [file:/C:/projects/imove/silomatsimyan/silo/]
2019-05-28 14:31:20,722  INFO Config:572 setting context to [file:/C:/projects/imove/silomatsimyan/silo/]
2019-05-28 14:31:20,724  INFO Config:572 setting context to [file:/C:/projects/imove/silomatsimyan/silo/]
2019-05-28 14:31:20,726  INFO Config:572 setting context to [file:/C:/projects/imove/silomatsimyan/silo/]
2019-05-28 14:31:20,728  INFO Config:572 setting context to [file:/C:/projects/imove/silomatsimyan/silo/]
2019-05-28 14:31:20,730  INFO Config:572 setting context to [file:/C:/projects/imove/silomatsimyan/silo/]
2019-05-28 14:31:20,731  INFO Config:572 setting context to [file:/C:/projects/imove/silomatsimyan/silo/]
2019-05-28 14:31:20,733  INFO Config:572 setting context to [file:/C:/projects/imove/silomatsimyan/silo/]
2019-05-28 14:31:20,734  INFO Config:572 setting context to [file:/C:/projects/imove/silomatsimyan/silo/]
2019-05-28 14:31:20,746  INFO VehicleWriterV1:52 about to write vehicles to: ./output/perth_base_2011/perth_base_2011.output_vehicles.xml.gz
2019-05-28 14:31:20,844  INFO HouseholdsWriterV10:66 about to write  households to: ./output/perth_base_2011/perth_base_2011.output_households.xml.gz
2019-05-28 14:31:20,845  INFO Counter:76 [HouseholdsWriter] wrote household # 0
2019-05-28 14:31:20,847  INFO LanesWriter:72 about to write lanes to: ./output/perth_base_2011/perth_base_2011.output_lanes.xml.gz
2019-05-28 14:31:21,027  INFO ControlerListenerManagerImpl:126 calling notifyShutdown on org.matsim.analysis.ModeStatsControlerListener
2019-05-28 14:31:21,028  INFO ControlerListenerManagerImpl:126 calling notifyShutdown on org.matsim.analysis.ScoreStatsControlerListener
2019-05-28 14:31:21,031  INFO ControlerListenerManagerImpl:126 calling notifyShutdown on org.matsim.analysis.TravelDistanceStatsControlerListener
2019-05-28 14:31:21,034  INFO ControlerListenerManagerImpl:129 all ControlerShutdownListeners called.
2019-05-28 14:31:21,034  INFO MatsimRuntimeModifications:81 S H U T D O W N   ---   shutdown completed.
2019-05-28 14:31:21,034  INFO OutputDirectoryLogging:146 closing the logfile, i.e. messages sent to the logger after this message are not written to the logfile.
