2019-06-17 19:41:44,005  INFO Gbl:63 JVM: 1.8.0_144; Oracle Corporation; mixed mode; 64-bit
2019-06-17 19:41:44,005  INFO Gbl:67 OS: Windows 10; 10.0; amd64
2019-06-17 19:41:44,005  INFO Gbl:70 CPU cores: 4
2019-06-17 19:41:44,005  INFO Gbl:71 max. Memory: 3616.0MB (3791650816B)
2019-06-17 19:41:44,009  INFO Gbl:109 MATSim-Build: r1ce39959a4bd59ed5c70e0fdcf6496a216585696 (2019-04-05 11:03:02)
2019-06-17 19:41:44,009  INFO ControlerListenerManagerImpl:107 calling notifyStartup on org.matsim.counts.CountsControlerListener
2019-06-17 19:41:44,009  INFO ControlerListenerManagerImpl:107 calling notifyStartup on org.matsim.analysis.ModeStatsControlerListener
2019-06-17 19:41:44,013  INFO ControlerListenerManagerImpl:107 calling notifyStartup on org.matsim.analysis.ScoreStatsControlerListener
2019-06-17 19:41:44,013  INFO ControlerListenerManagerImpl:110 all ControlerStartupListeners called.
2019-06-17 19:41:44,013  INFO ControlerUtils:58 config dump before iterations start
2019-06-17 19:41:44,029  INFO ControlerUtils:62 

<?xml version="1.0" encoding="UTF-8"?>
<!DOCTYPE config SYSTEM "http://www.matsim.org/files/dtd/config_v2.dtd">
<config>
	<module name="JDEQSim" >
		<param name="carSize" value="7.5" />
		<param name="endTime" value="undefined" />
		<param name="flowCapacityFactor" value="1.0" />
		<param name="gapTravelSpeed" value="15.0" />
		<param name="minimumInFlowCapacity" value="1800.0" />
		<param name="squeezeTime" value="1800.0" />
		<param name="storageCapacityFactor" value="1.0" />
	</module>
	<module name="TimeAllocationMutator" >
		<!-- Default:true; Defines whether time mutation changes an activity's duration. -->
		<param name="mutationAffectsDuration" value="false" />
		<!-- Default:1800.0; Defines how many seconds a time mutation can maximally shift a time. -->
		<param name="mutationRange" value="7200.0" />
		<!-- false; Use individual settings for each subpopulation. If enabled but no settings are found, regular settings are uses as fallback. -->
		<param name="useIndividualSettingsForSubpopulations" value="false" />
	</module>
	<module name="changeMode" >
		<!-- Defines whether car availability is considered be considered or not. An agent has no car only if it has no license, or never access to a car. Default: true -->
		<param name="ignoreCarAvailability" value="true" />
		<!-- Defines the mode switch behavior. Possible values [fromAllModesToSpecifiedModes, fromSpecifiedModesToSpecifiedModes] Default: fromSpecifiedModesToSpecifiedModes. -->
		<param name="modeSwitchBehavior" value="fromSpecifiedModesToSpecifiedModes" />
		<!-- Defines all the modes available, including chain-based modes, seperated by commas -->
		<param name="modes" value="car,pt" />
	</module>
	<module name="controler" >
		<!-- Sets whether graphs showing some analyses should automatically be generated during the simulation. The generation of graphs usually takes a small amount of time that does not have any weight in big simulations, but add a significant overhead in smaller runs or in test cases where the graphical output is not even requested. -->
		<param name="createGraphs" value="true" />
		<!-- true if at the end of a run, plans, network, config etc should be dumped to a file -->
		<param name="dumpDataAtEnd" value="true" />
		<!-- Default=false. If enabled, the router takes travel times needed for turning moves into account. Cannot be used if the (Fast)AStarLandmarks routing or TravelTimeCalculator.separateModes is enabled. -->
		<param name="enableLinkToLinkRouting" value="false" />
		<!-- Default=xml; Specifies the file format for writing events. Currently supported: xml.
		Multiple values can be specified separated by commas (','). -->
		<param name="eventsFileFormat" value="xml" />
		<!-- Default=0;  -->
		<param name="firstIteration" value="0" />
		<!-- Default=1000;  -->
		<param name="lastIteration" value="1" />
		<!-- Defines which mobility simulation will be used. Currently supported: qsim JDEQSim 
		Depending on the chosen mobsim, you'll have to add additional config modules to configure the corresponding mobsim.
		For 'qsim', add a module 'qsim' to the config. -->
		<param name="mobsim" value="qsim" />
		<param name="outputDirectory" value="test/output/de/tum/bgu/msm/transportModel/matsim/SiloMatsimTest/testMain//test_matsim_2000/" />
		<!-- Possible values: failIfDirectoryExists, overwriteExistingFiles, deleteDirectoryIfExists -->
		<param name="overwriteFiles" value="deleteDirectoryIfExists" />
		<!-- The type of routing (least cost path) algorithm used, may have the values: Dijkstra, FastDijkstra, AStarLandmarks or FastAStarLandmarks -->
		<param name="routingAlgorithmType" value="AStarLandmarks" />
		<!-- An identifier for the current run which is used as prefix for output files and mentioned in output xml files etc. -->
		<param name="runId" value="test_matsim_2000" />
		<!-- Comma-separated list of visualizer output file formats. `transims', `googleearth', and `otfvis'. -->
		<param name="snapshotFormat" value="" />
		<!-- iterationNumber % writeEventsInterval == 0 defines in which iterations events are written to a file. `0' disables events writing completely. -->
		<param name="writeEventsInterval" value="1" />
		<!-- iterationNumber % writePlansInterval == 0 defines (hopefully) in which iterations plans are written to a file. `0' disables plans writing completely.  Some plans in early iterations are always written -->
		<param name="writePlansInterval" value="1" />
		<!-- iterationNumber % writeSnapshotsInterval == 0 defines in which iterations snapshots are written to a file. `0' disables snapshots writing completely -->
		<param name="writeSnapshotsInterval" value="1" />
	</module>
	<module name="counts" >
		<!-- Transport modes that will be respected for the counts comparison. 'car' is default, which includes also bussed from the pt simulation module. Use this parameter in combination with 'filterModes' = true! -->
		<param name="analyzedModes" value="car" />
		<!-- Specifies over how many iterations the link volumes should be averaged that are used for the counts comparison. Use 1 or 0 to only use the link volumes of a single iteration. This values cannot be larger than the value specified for writeCountsInterval -->
		<param name="averageCountsOverIterations" value="5" />
		<!-- factor by which to re-scale the simulated values.  necessary when simulation runs with something different from 100%.  needs to be adapted manually -->
		<param name="countsScaleFactor" value="1.0" />
		<!-- distance to distanceFilterCenterNode to include counting stations. The unit of distance is the Euclidean distance implied by the coordinate system -->
		<param name="distanceFilter" value="null" />
		<!-- node id for center node of distance filter -->
		<param name="distanceFilterCenterNode" value="null" />
		<!-- If true, link counts from legs performed on modes not included in the 'analyzedModes' parameter are ignored. -->
		<param name="filterModes" value="false" />
		<!-- The Coordinates Reference System in which the coordinates are expressed in the input file. At import, the coordinates will be converted to the coordinate system defined in "global", and willbe converted back at export. If not specified, no conversion happens. -->
		<param name="inputCRS" value="null" />
		<!-- input file name to counts package -->
		<param name="inputCountsFile" value="null" />
		<!-- possible values: `html', `kml', `txt', `all' -->
		<param name="outputformat" value="txt" />
		<!-- Specifies how often the counts comparison should be calculated and written. -->
		<param name="writeCountsInterval" value="10" />
	</module>
	<module name="facilities" >
		<!-- This defines how facilities should be created. Possible values: none fromFile setInScenario onePerActivityLinkInPlansFile onePerActivityLocationInPlansFile  -->
		<param name="facilitiesSource" value="none" />
		<!-- A prefix to be used for auto-generated IDs. -->
		<param name="idPrefix" value="autogen_" />
		<!-- The Coordinates Reference System in which the coordinates are expressed in the input file. At import, the coordinates will be converted to the coordinate system defined in "global", and willbe converted back at export. If not specified, no conversion happens. -->
		<param name="inputCRS" value="null" />
		<param name="inputFacilitiesFile" value="null" />
		<param name="inputFacilityAttributesFile" value="null" />
	</module>
	<module name="global" >
		<param name="coordinateSystem" value="Atlantis" />
		<param name="insistingOnDeprecatedConfigVersion" value="true" />
		<!-- "global" number of threads.  This number is used, e.g., for replanning, but NOT in the mobsim.  This can typically be set to as many cores as you have available, or possibly even slightly more. -->
		<param name="numberOfThreads" value="1" />
		<param name="randomSeed" value="4711" />
	</module>
	<module name="households" >
		<param name="inputFile" value="null" />
		<param name="inputHouseholdAttributesFile" value="null" />
	</module>
	<module name="linkStats" >
		<!-- Specifies over how many iterations the link volumes should be averaged that are used for the link statistics. Use 1 or 0 to only use the link volumes of a single iteration. This values cannot be larger than the value specified for writeLinkStatsInterval -->
		<param name="averageLinkStatsOverIterations" value="5" />
		<!-- Specifies how often the link stats should be calculated and written. Use 0 to disable the generation of link stats. -->
		<param name="writeLinkStatsInterval" value="10" />
	</module>
	<module name="network" >
		<!-- The Coordinates Reference System in which the coordinates are expressed in the input file. At import, the coordinates will be converted to the coordinate system defined in "global", and willbe converted back at export. If not specified, no conversion happens. -->
		<param name="inputCRS" value="null" />
		<param name="inputChangeEventsFile" value="null" />
		<param name="inputNetworkFile" value="network/05/network.xml.gz" />
		<param name="laneDefinitionsFile" value="null" />
		<param name="timeVariantNetwork" value="false" />
	</module>
	<module name="parallelEventHandling" >
		<!-- Estimated number of events during mobsim run. An optional optimization hint for the framework. -->
		<param name="estimatedNumberOfEvents" value="null" />
		<!-- Number of threads for parallel events handler. _null_ means the framework decides by itself. 0 is currently not possible. -->
		<param name="numberOfThreads" value="1" />
		<!-- If enabled, each event handler is assigned to its own thread. Note that enabling this feature disabled the numberOfThreads option! This feature is still experimental! -->
		<param name="oneThreadPerHandler" value="false" />
		<!-- If enabled, it is ensured that all events that are created during a time step of the mobility simulation are processed before the next time step is simulated. E.g. neccessary when within-day replanning is used. -->
		<param name="synchronizeOnSimSteps" value="true" />
	</module>
	<module name="planCalcScore" >
		<!-- logit model scale parameter. default: 1.  Has name and default value for historical reasons (see Bryan Raney's phd thesis). -->
		<param name="BrainExpBeta" value="1.0" />
		<param name="PathSizeLogitBeta" value="1.0" />
		<!-- fraction of iterations at which MSA score averaging is started. The matsim theory department suggests to use this together with switching off choice set innovation (where a similar switch exists), but it has not been tested yet. -->
		<param name="fractionOfIterationsToStartScoreMSA" value="null" />
		<!-- new_score = (1-learningRate)*old_score + learningRate * score_from_mobsim.  learning rates close to zero emulate score averaging, but slow down initial convergence -->
		<param name="learningRate" value="1.0" />
		<!-- There used to be a plateau between duration=0 and duration=zeroUtilityDuration. This caused durations to evolve to zero once they were below zeroUtilityDuration, causing problems.  Only use this switch if you need to be backwards compatible with some old results.  (changed nov'13) -->
		<param name="usingOldScoringBelowZeroUtilityDuration" value="false" />
		<!-- write a plans file in each iteration directory which contains what each agent actually did, and the score it received. -->
		<param name="writeExperiencedPlans" value="false" />
		<parameterset type="scoringParameters" >
			<param name="earlyDeparture" value="-0.0" />
			<param name="lateArrival" value="-18.0" />
			<param name="marginalUtilityOfMoney" value="1.0" />
			<param name="performing" value="6.0" />
			<param name="subpopulation" value="null" />
			<param name="utilityOfLineSwitch" value="-1.0" />
			<param name="waiting" value="-0.0" />
			<param name="waitingPt" value="-6.0" />
			<parameterset type="activityParams" >
				<param name="activityType" value="dummy" />
				<param name="closingTime" value="undefined" />
				<param name="earliestEndTime" value="undefined" />
				<param name="latestStartTime" value="undefined" />
				<param name="minimalDuration" value="undefined" />
				<param name="openingTime" value="undefined" />
				<param name="priority" value="1.0" />
				<param name="scoringThisActivityAtAll" value="true" />
				<!-- typical duration of activity.  needs to be defined and non-zero.  in sec. -->
				<param name="typicalDuration" value="02:00:00" />
				<!-- method to compute score at typical duration.  Options: | uniform | relative | Use uniform for backwards compatibility (all activities same score; higher proba to drop long acts). -->
				<param name="typicalDurationScoreComputation" value="relative" />
			</parameterset>
			<parameterset type="activityParams" >
				<param name="activityType" value="car interaction" />
				<param name="closingTime" value="undefined" />
				<param name="earliestEndTime" value="undefined" />
				<param name="latestStartTime" value="undefined" />
				<param name="minimalDuration" value="undefined" />
				<param name="openingTime" value="undefined" />
				<param name="priority" value="1.0" />
				<param name="scoringThisActivityAtAll" value="false" />
				<param name="typicalDuration" value="undefined" />
				<param name="typicalDurationScoreComputation" value="relative" />
			</parameterset>
			<parameterset type="activityParams" >
				<param name="activityType" value="pt interaction" />
				<param name="closingTime" value="undefined" />
				<param name="earliestEndTime" value="undefined" />
				<param name="latestStartTime" value="undefined" />
				<param name="minimalDuration" value="undefined" />
				<param name="openingTime" value="undefined" />
				<param name="priority" value="1.0" />
				<param name="scoringThisActivityAtAll" value="false" />
				<param name="typicalDuration" value="undefined" />
				<param name="typicalDurationScoreComputation" value="relative" />
			</parameterset>
			<parameterset type="activityParams" >
				<param name="activityType" value="bike interaction" />
				<param name="closingTime" value="undefined" />
				<param name="earliestEndTime" value="undefined" />
				<param name="latestStartTime" value="undefined" />
				<param name="minimalDuration" value="undefined" />
				<param name="openingTime" value="undefined" />
				<param name="priority" value="1.0" />
				<param name="scoringThisActivityAtAll" value="false" />
				<param name="typicalDuration" value="undefined" />
				<param name="typicalDurationScoreComputation" value="relative" />
			</parameterset>
			<parameterset type="activityParams" >
				<param name="activityType" value="other interaction" />
				<param name="closingTime" value="undefined" />
				<param name="earliestEndTime" value="undefined" />
				<param name="latestStartTime" value="undefined" />
				<param name="minimalDuration" value="undefined" />
				<param name="openingTime" value="undefined" />
				<param name="priority" value="1.0" />
				<param name="scoringThisActivityAtAll" value="false" />
				<param name="typicalDuration" value="undefined" />
				<param name="typicalDurationScoreComputation" value="relative" />
			</parameterset>
			<parameterset type="activityParams" >
				<param name="activityType" value="walk interaction" />
				<param name="closingTime" value="undefined" />
				<param name="earliestEndTime" value="undefined" />
				<param name="latestStartTime" value="undefined" />
				<param name="minimalDuration" value="undefined" />
				<param name="openingTime" value="undefined" />
				<param name="priority" value="1.0" />
				<param name="scoringThisActivityAtAll" value="false" />
				<param name="typicalDuration" value="undefined" />
				<param name="typicalDurationScoreComputation" value="relative" />
			</parameterset>
			<parameterset type="activityParams" >
				<param name="activityType" value="home" />
				<param name="closingTime" value="undefined" />
				<param name="earliestEndTime" value="undefined" />
				<param name="latestStartTime" value="undefined" />
				<param name="minimalDuration" value="undefined" />
				<param name="openingTime" value="undefined" />
				<param name="priority" value="1.0" />
				<param name="scoringThisActivityAtAll" value="true" />
				<param name="typicalDuration" value="12:00:00" />
				<param name="typicalDurationScoreComputation" value="relative" />
			</parameterset>
			<parameterset type="activityParams" >
				<param name="activityType" value="work" />
				<param name="closingTime" value="undefined" />
				<param name="earliestEndTime" value="undefined" />
				<param name="latestStartTime" value="undefined" />
				<param name="minimalDuration" value="undefined" />
				<param name="openingTime" value="undefined" />
				<param name="priority" value="1.0" />
				<param name="scoringThisActivityAtAll" value="true" />
				<param name="typicalDuration" value="08:00:00" />
				<param name="typicalDurationScoreComputation" value="relative" />
			</parameterset>
			<parameterset type="modeParams" >
				<!-- [utils] alternative-specific constant.  Normally per trip, but that is probably buggy for multi-leg trips. -->
				<param name="constant" value="0.0" />
				<!-- [money] daily monetary constant. default=0 to be backwards compatible -->
				<param name="dailyMonetaryConstant" value="0.0" />
				<!-- [utils] daily utility constant. default=0 to be backwards compatible -->
				<param name="dailyUtilityConstant" value="0.0" />
				<!-- [utils/m] utility of traveling (e.g. walking or driving) per m, normally negative.  this is on top of the time (dis)utility. -->
				<param name="marginalUtilityOfDistance_util_m" value="0.0" />
				<!-- [utils/hr] additional marginal utility of traveling.  normally negative.  this comes on top of the opportunity cost of time -->
				<param name="marginalUtilityOfTraveling_util_hr" value="-6.0" />
				<param name="mode" value="car" />
				<!-- [unit_of_money/m] conversion of distance into money. Normally negative. -->
				<param name="monetaryDistanceRate" value="0.0" />
			</parameterset>
			<parameterset type="modeParams" >
				<param name="constant" value="0.0" />
				<param name="dailyMonetaryConstant" value="0.0" />
				<param name="dailyUtilityConstant" value="0.0" />
				<param name="marginalUtilityOfDistance_util_m" value="0.0" />
				<param name="marginalUtilityOfTraveling_util_hr" value="-6.0" />
				<param name="mode" value="pt" />
				<param name="monetaryDistanceRate" value="0.0" />
			</parameterset>
			<parameterset type="modeParams" >
				<param name="constant" value="0.0" />
				<param name="dailyMonetaryConstant" value="0.0" />
				<param name="dailyUtilityConstant" value="0.0" />
				<param name="marginalUtilityOfDistance_util_m" value="0.0" />
				<param name="marginalUtilityOfTraveling_util_hr" value="-6.0" />
				<param name="mode" value="walk" />
				<param name="monetaryDistanceRate" value="0.0" />
			</parameterset>
			<parameterset type="modeParams" >
				<param name="constant" value="0.0" />
				<param name="dailyMonetaryConstant" value="0.0" />
				<param name="dailyUtilityConstant" value="0.0" />
				<param name="marginalUtilityOfDistance_util_m" value="0.0" />
				<param name="marginalUtilityOfTraveling_util_hr" value="-6.0" />
				<param name="mode" value="bike" />
				<param name="monetaryDistanceRate" value="0.0" />
			</parameterset>
			<parameterset type="modeParams" >
				<param name="constant" value="0.0" />
				<param name="dailyMonetaryConstant" value="0.0" />
				<param name="dailyUtilityConstant" value="0.0" />
				<param name="marginalUtilityOfDistance_util_m" value="0.0" />
				<param name="marginalUtilityOfTraveling_util_hr" value="-6.0" />
				<param name="mode" value="ride" />
				<param name="monetaryDistanceRate" value="0.0" />
			</parameterset>
			<parameterset type="modeParams" >
				<param name="constant" value="0.0" />
				<param name="dailyMonetaryConstant" value="0.0" />
				<param name="dailyUtilityConstant" value="0.0" />
				<param name="marginalUtilityOfDistance_util_m" value="0.0" />
				<param name="marginalUtilityOfTraveling_util_hr" value="-6.0" />
				<param name="mode" value="other" />
				<param name="monetaryDistanceRate" value="0.0" />
			</parameterset>
		</parameterset>
	</module>
	<module name="plans" >
		<!-- String: minOfDurationAndEndTime tryEndTimeThenDuration endTimeOnly. Anything besides minOfDurationAndEndTime will internally use a different (simpler) version of the TimeAllocationMutator. -->
		<param name="activityDurationInterpretation" value="tryEndTimeThenDuration" />
		<!-- The Coordinates Reference System in which the coordinates are expressed in the input file. At import, the coordinates will be converted to the coordinate system defined in "global", and willbe converted back at export. If not specified, no conversion happens. -->
		<param name="inputCRS" value="null" />
		<param name="inputPersonAttributesFile" value="null" />
		<param name="inputPlansFile" value="null" />
		<!-- Defines how routes are stored in memory. Currently supported: LinkNetworkRoute, CompressedNetworkRoute. -->
		<param name="networkRouteType" value="LinkNetworkRoute" />
		<!-- (not tested) will remove plan attributes that are presumably not used, such as activityStartTime. default=false. Use with Caution! -->
		<param name="removingUnnecessaryPlanAttributes" value="true" />
		<!-- Name of the (Object)Attribute defining the subpopulation to which pertains a Person (as freight, through traffic, etc.). The attribute must be of String type.  Change away from default only in desperate situations. -->
		<param name="subpopulationAttributeName" value="subpopulation" />
	</module>
	<module name="planscalcroute" >
		<!-- All the modes for which the router is supposed to generate network routes (like car) -->
		<param name="networkModes" value="car" />
		<parameterset type="teleportedModeParameters" >
			<param name="beelineDistanceFactor" value="1.3" />
			<param name="mode" value="bike" />
			<!-- Free-speed factor for a teleported mode. Travel time = teleportedModeFreespeedFactor * <freespeed car travel time>. Insert a line like this for every such mode. Please do not set teleportedModeFreespeedFactor as well as teleportedModeSpeed for the same mode, but if you do, +teleportedModeFreespeedFactor wins over teleportedModeSpeed. -->
			<param name="teleportedModeFreespeedFactor" value="null" />
			<!-- Speed for a teleported mode. Travel time = (<beeline distance> * beelineDistanceFactor) / teleportedModeSpeed. Insert a line like this for every such mode. -->
			<param name="teleportedModeSpeed" value="4.166666666666667" />
		</parameterset>
		<parameterset type="teleportedModeParameters" >
			<param name="beelineDistanceFactor" value="1.3" />
			<param name="mode" value="walk" />
			<param name="teleportedModeFreespeedFactor" value="null" />
			<param name="teleportedModeSpeed" value="0.8333333333333333" />
		</parameterset>
		<parameterset type="teleportedModeParameters" >
			<param name="beelineDistanceFactor" value="1.3" />
			<param name="mode" value="access_walk" />
			<param name="teleportedModeFreespeedFactor" value="null" />
			<param name="teleportedModeSpeed" value="0.8333333333333333" />
		</parameterset>
		<parameterset type="teleportedModeParameters" >
			<param name="beelineDistanceFactor" value="1.3" />
			<param name="mode" value="egress_walk" />
			<param name="teleportedModeFreespeedFactor" value="null" />
			<param name="teleportedModeSpeed" value="0.8333333333333333" />
		</parameterset>
		<parameterset type="teleportedModeParameters" >
			<param name="beelineDistanceFactor" value="1.3" />
			<param name="mode" value="undefined" />
			<param name="teleportedModeFreespeedFactor" value="null" />
			<param name="teleportedModeSpeed" value="13.88888888888889" />
		</parameterset>
		<parameterset type="teleportedModeParameters" >
			<param name="beelineDistanceFactor" value="1.3" />
			<param name="mode" value="ride" />
			<param name="teleportedModeFreespeedFactor" value="1.0" />
			<param name="teleportedModeSpeed" value="null" />
		</parameterset>
		<parameterset type="teleportedModeParameters" >
			<param name="beelineDistanceFactor" value="1.3" />
			<param name="mode" value="pt" />
			<param name="teleportedModeFreespeedFactor" value="2.0" />
			<param name="teleportedModeSpeed" value="null" />
		</parameterset>
	</module>
	<module name="ptCounts" >
		<!-- factor by which to re-scale the simulated values.  necessary when simulation runs with something different from 100%.  needs to be adapted manually -->
		<param name="countsScaleFactor" value="1.0" />
		<!-- distance to distanceFilterCenterNode to include counting stations. The unit of distance is the Euclidean distance implied by the coordinate system -->
		<param name="distanceFilter" value="null" />
		<!-- node id for center node of distance filter -->
		<param name="distanceFilterCenterNode" value="null" />
		<!-- input file containing the alighting (getting off) counts for pt -->
		<param name="inputAlightCountsFile" value="null" />
		<!-- input file containing the boarding (getting on) counts for pt -->
		<param name="inputBoardCountsFile" value="null" />
		<!-- input file containing the occupancy counts for pt -->
		<param name="inputOccupancyCountsFile" value="null" />
		<!-- possible values: `html', `kml', `txt', `all' -->
		<param name="outputformat" value="null" />
		<!-- every how many iterations (starting with 0) counts comparisons are generated -->
		<param name="ptCountsInterval" value="10" />
	</module>
	<module name="qsim" >
		<param name="endTime" value="undefined" />
		<param name="flowCapacityFactor" value="0.01" />
		<!-- decides if waiting vehicles enter the network after or before the already driving vehicles were moved. Default: false -->
		<param name="insertingWaitingVehiclesBeforeDrivingVehicles" value="true" />
		<!-- If link dynamics is set as SeepageQ, set to false if all seep modes should perform seepage. Default is true (better option). -->
		<param name="isRestrictingSeepage" value="true" />
		<!-- If link dynamics is set as SeepageQ, set to true if seep mode do not consumes any space on the link. Default is false. -->
		<param name="isSeepModeStorageFree" value="false" />
		<!-- default: FIFO; options: FIFO PassingQ SeepageQ -->
		<param name="linkDynamics" value="FIFO" />
		<!-- The (initial) width of the links of the network. Use positive floating point values. This is used only for visualisation. -->
		<param name="linkWidth" value="30.0" />
		<!-- [comma-separated list] Defines which modes are congested modes. Technically, these are the modes that the departure handler of the netsimengine handles.  Effective cell size, effective lane width, flow capacity factor, and storage capacity factor need to be set with diligence.  Need to be vehicular modes to make sense. -->
		<param name="mainMode" value="car" />
		<!-- Shortens a link in the visualization, i.e. its start and end point are moved into towards the center. Does not affect traffic flow.  -->
		<param name="nodeOffset" value="0.0" />
		<!-- Number of threads used for the QSim.  Note that this setting is independent from the "global" threads setting.  In contrast to earlier versions, the non-parallel special version is no longer there. -->
		<param name="numberOfThreads" value="1" />
		<!-- Boolean. `true': stuck vehicles are removed, aborting the plan; `false': stuck vehicles are forced into the next link. `false' is probably the better choice. -->
		<param name="removeStuckVehicles" value="false" />
		<!-- If link dynamics is set as SeepageQ, set a seep mode. Default is bike. -->
		<param name="seepMode" value="bike" />
		<!-- Possible values: minOfEndtimeAndMobsimFinished, onlyUseEndtime -->
		<param name="simEndtimeInterpretation" value="null" />
		<!-- Options: maxOfStarttimeAndEarliestActivityEnd onlyUseStarttime  -->
		<param name="simStarttimeInterpretation" value="maxOfStarttimeAndEarliestActivityEnd" />
		<!-- snapshotStyle. One of: equiDist queue withHoles withHolesAndShowHoles kinematicWaves  -->
		<param name="snapshotStyle" value="equiDist" />
		<param name="snapshotperiod" value="00:00:00" />
		<param name="startTime" value="undefined" />
		<param name="storageCapacityFactor" value="0.03" />
		<!-- time in seconds.  Time after which the frontmost vehicle on a link is called `stuck' if it does not move. -->
		<param name="stuckTime" value="10.0" />
		<param name="timeStepSize" value="00:00:01" />
		<!-- options: queue withHoles kinematicWaves  -->
		<param name="trafficDynamics" value="withHoles" />
		<!-- Set this parameter to true if lanes should be used, false if not. -->
		<param name="useLanes" value="false" />
		<!-- If a route does not reference a vehicle, agents will use the vehicle with the same id as their own. -->
		<param name="usePersonIdForMissingVehicleId" value="true" />
		<!-- If false, the qsim accumulates fractional flows up to one flow unit in every time step.  If true, flows are updated only if an agent wants to enter the link or an agent is added to buffer. Default is true. -->
		<param name="usingFastCapacityUpdate" value="true" />
		<!-- if the qsim should use as many runners as there are threads (Christoph's dissertation version) or more of them, together with a thread pool (seems to be faster in some situations, but is not tested). -->
		<param name="usingThreadpool" value="false" />
		<!-- Defines what happens if an agent wants to depart, but the specified vehicle is not available. One of: teleport wait exception  -->
		<param name="vehicleBehavior" value="teleport" />
		<!-- If vehicles should all be the same default vehicle, or come from the vehicles file, or something else.  Possible values:  defaultVehicle modeVehicleTypesFromVehiclesData fromVehiclesData -->
		<param name="vehiclesSource" value="defaultVehicle" />
	</module>
	<module name="strategy" >
		<!-- the external executable will be called with a config file as argument.  This is the pathname to a possible skeleton config, to which additional information will be added.  Can be null. -->
		<param name="ExternalExeConfigTemplate" value="null" />
		<!-- time out value (in seconds) after which matsim will consider the external strategy as failed -->
		<param name="ExternalExeTimeOut" value="3600" />
		<!-- root directory for temporary files generated by the external executable. Provided as a service; I don't think this is used by MATSim. -->
		<param name="ExternalExeTmpFileRootDir" value="null" />
		<!-- fraction of iterations where innovative strategies are switched off.  Something like 0.8 should be good.  E.g. if you run from iteration 400 to iteration 500, innovation is switched off at iteration 480 -->
		<param name="fractionOfIterationsToDisableInnovation" value="0.8" />
		<!-- maximum number of plans per agent.  ``0'' means ``infinity''.  Currently (2010), ``5'' is a good number -->
		<param name="maxAgentPlanMemorySize" value="4" />
		<!-- strategyName of PlanSelector for plans removal.  Possible defaults: WorstPlanSelector SelectRandom SelectExpBetaForRemoval ChangeExpBetaForRemoval PathSizeLogitSelectorForRemoval . The current default, WorstPlanSelector is not a good choice from a discrete choice theoretical perspective. Alternatives, however, have not been systematically tested. kai, feb'12 -->
		<param name="planSelectorForRemoval" value="WorstPlanSelector" />
		<parameterset type="strategysettings" >
			<!-- iteration after which strategy will be disabled.  most useful for ``innovative'' strategies (new routes, new times, ...). Normally, better use fractionOfIterationsToDisableInnovation -->
			<param name="disableAfterIteration" value="-1" />
			<!-- path to external executable (if applicable) -->
			<param name="executionPath" value="null" />
			<!-- strategyName of strategy.  Possible default names: SelectRandomBestScoreKeepLastSelectedChangeExpBetaSelectExpBetaSelectPathSizeLogit (selectors), ReRouteTimeAllocationMutatorTimeAllocationMutator_ReRouteChangeSingleTripModeChangeTripModeSubtourModeChoice (innovative strategies). -->
			<param name="strategyName" value="ChangeExpBeta" />
			<!-- subpopulation to which the strategy applies. "null" refers to the default population, that is, the set of persons for which no explicit subpopulation is defined (ie no subpopulation attribute) -->
			<param name="subpopulation" value="null" />
			<!-- weight of a strategy: for each agent, a strategy will be selected with a probability proportional to its weight -->
			<param name="weight" value="0.8" />
		</parameterset>
		<parameterset type="strategysettings" >
			<param name="disableAfterIteration" value="-1" />
			<param name="executionPath" value="null" />
			<param name="strategyName" value="ReRoute" />
			<param name="subpopulation" value="null" />
			<param name="weight" value="0.2" />
		</parameterset>
	</module>
	<module name="subtourModeChoice" >
		<!-- Only for backwards compatibility.  Defines if only trips from modes list should change mode, or all trips.  Options: fromAllModesToSpecifiedModes fromSpecifiedModesToSpecifiedModes  -->
		<param name="behavior" value="fromSpecifiedModesToSpecifiedModes" />
		<!-- Defines the chain-based modes, seperated by commas -->
		<param name="chainBasedModes" value="car,bike" />
		<!-- Defines whether car availability must be considered or not. A agent has no car only if it has no license, or never access to a car -->
		<param name="considerCarAvailability" value="false" />
		<!-- Defines all the modes available, including chain-based modes, seperated by commas -->
		<param name="modes" value="car,pt,bike,walk" />
	</module>
	<module name="transit" >
		<!-- The Coordinates Reference System in which the coordinates are expressed in the input file. At import, the coordinates will be converted to the coordinate system defined in "global", and willbe converted back at export. If not specified, no conversion happens. -->
		<param name="inputScheduleCRS" value="null" />
		<!-- Optional input file containing additional attributes for transit lines, stored as ObjectAttributes. -->
		<param name="transitLinesAttributesFile" value="null" />
		<!-- Comma-separated list of transportation modes that are handled as transit. Defaults to 'pt'. -->
		<param name="transitModes" value="pt" />
		<!-- Input file containing the transit schedule to be simulated. -->
		<param name="transitScheduleFile" value="null" />
		<!-- Optional input file containing additional attributes for transit stop facilities, stored as ObjectAttributes. -->
		<param name="transitStopsAttributesFile" value="null" />
		<!-- Set this parameter to true if transit should be simulated, false if not. -->
		<param name="useTransit" value="false" />
		<!-- Input file containing the vehicles used by the departures in the transit schedule. -->
		<param name="vehiclesFile" value="null" />
	</module>
	<module name="transitRouter" >
		<!-- additional time the router allocates when a line switch happens. Can be interpreted as a 'safety' time that agents need to safely transfer from one line to another -->
		<param name="additionalTransferTime" value="0.0" />
		<!-- Factor with which direct walk generalized cost is multiplied before it is compared to the pt generalized cost.  Set to a very high value to reduce direct walk results. -->
		<param name="directWalkFactor" value="1.0" />
		<!-- step size to increase searchRadius if no stops are found -->
		<param name="extensionRadius" value="200.0" />
		<!-- maximum beeline distance between stops that agents could transfer to by walking -->
		<param name="maxBeelineWalkConnectionDistance" value="100.0" />
		<!-- the radius in which stop locations are searched, given a start or target coordinate -->
		<param name="searchRadius" value="1000.0" />
	</module>
	<module name="travelTimeCalculator" >
		<!-- (only for backwards compatibility; only used if separateModes==false && + filterModes==true)  Transport modes that will be respected by the travel time collector. 'car' is default which includes also buses from the pt simulation module. -->
		<param name="analyzedModes" value="car" />
		<param name="calculateLinkToLinkTravelTimes" value="false" />
		<param name="calculateLinkTravelTimes" value="true" />
		<!-- (only for backwards compatiblity; only used if separateModes==false)  Only modes included in analyzedModes are included. -->
		<param name="filterModes" value="false" />
		<!-- The lenght (in sec) of the time period that is splited into time bins; an additional time bin is created to aggregate all travel times collected after maxTime -->
		<param name="maxTime" value="108000" />
		<!-- (only for backwards compatibility) If false, link travel times are measured and aggregated over all vehicles using the link. -->
		<param name="separateModes" value="true" />
		<!-- How to deal with congested time bins that have no link entry events. `optimistic' assumes free speed (too optimistic); 'experimental_LastMile' is experimental and probably too pessimistic. -->
		<param name="travelTimeAggregator" value="optimistic" />
		<!-- The size of the time bin (in sec) into which the link travel times are aggregated for the router -->
		<param name="travelTimeBinSize" value="900" />
		<!-- possible values: TravelTimeCalculatorArray TravelTimeCalculatorHashMap  -->
		<param name="travelTimeCalculator" value="TravelTimeCalculatorArray" />
		<!-- How to deal with link entry times at different positions during the time bin. Currently supported: average, linearinterpolation -->
		<param name="travelTimeGetter" value="average" />
	</module>
	<module name="vehicles" >
		<param name="vehiclesFile" value="null" />
	</module>
	<module name="vspExperimental" >
		<!-- (do not use except of you have to) There was a problem with pt interaction scoring.  Some people solved it by overwriting the parameters of the pt interaction activity type.  Doing this now throws an Exception.  If you still insist on doing this, set the following to true. -->
		<param name="isAbleToOverwritePtInteractionParams" value="false" />
		<param name="isGeneratingBoardingDeniedEvent" value="false" />
		<!-- if an approximation of the opportunity cost of time is included into the radius calculation for location choice.`true' will be faster, but it is an approximation.  Default is `true'; `false' is available for backwards compatibility. -->
		<param name="isUsingOpportunityCostOfTimeForLocationChoice" value="true" />
		<param name="logitScaleParamForPlansRemoval" value="1.0" />
		<!-- Options: | ignore | info | warn | abort | .  When violating VSP defaults, this results in nothing, logfile infos, logfile warnings, or aborts.  Members of VSP should use `abort' or talk to kai. -->
		<param name="vspDefaultsCheckingLevel" value="warn" />
		<!-- if true then writes output_events in output directory.  default is `false'. Will only work when lastIteration is multiple of events writing interval -->
		<param name="writingOutputEvents" value="true" />
	</module>

</config>

2019-06-17 19:41:44,093  INFO ControlerUtils:63 Complete config dump done.
2019-06-17 19:41:44,097  INFO ControlerUtils:64 Checking consistency of config...
2019-06-17 19:41:44,097  INFO PlanCalcScoreConfigGroup$ScoringParameterSet:1492 NO OPENING OR CLOSING TIMES DEFINED!

There is no activity type that has an opening *and* closing time (or opening time and late penalty) defined.
This usually means that the activity chains can be shifted by an arbitrary
number of hours without having an effect on the score of the plans, and thus
resulting in wrong results / traffic patterns.
If you are using MATSim without time adaptation, you can ignore this warning.


2019-06-17 19:41:44,097  INFO VspConfigConsistencyCheckerImpl:72 running checkConsistency ...
2019-06-17 19:41:44,097  WARN VspConfigConsistencyCheckerImpl:83 you are insisting on config v1.  vsp default is using v2.
2019-06-17 19:41:44,097  WARN VspConfigConsistencyCheckerImpl:99 you are not using FastAStarLandmarks as routing algorithm.  vsp default is to use FastAStarLandmarks.
2019-06-17 19:41:44,097  WARN VspConfigConsistencyCheckerImpl:201 You are not setting fractionOfIterationsToStartScoreMSA; vsp default is to set this to something like 0.8.  This means you have to add the following lines to your config file: 
2019-06-17 19:41:44,097  WARN VspConfigConsistencyCheckerImpl:203 <module name="planCalcScore">
2019-06-17 19:41:44,101  WARN VspConfigConsistencyCheckerImpl:204 	<param name="fractionOfIterationsToStartScoreMSA" value="0.8" />
2019-06-17 19:41:44,101  WARN VspConfigConsistencyCheckerImpl:205 </module>
2019-06-17 19:41:44,101  WARN VspConfigConsistencyCheckerImpl:247 found `plansCalcRoute.insertingAccessEgressWalk==false'; vsp should use `true' or talk to Kai. 
2019-06-17 19:41:44,101  WARN VspConfigConsistencyCheckerImpl:254 found qsim.usePersonIdForMissingVehicleId==true; this is only for backwards compatibility and should rather be set to false
2019-06-17 19:41:44,101  WARN VspConfigConsistencyCheckerImpl:259 found `qsim.usingTravelTimeCheckInTeleporation==false'; vsp should try out `true' and report.
2019-06-17 19:41:44,101  INFO ControlerUtils:66 Checking consistency of config done.
2019-06-17 19:41:44,133  INFO NetworkImpl:426 building QuadTree for nodes: xrange(-154092.932703941,510352.4550028222); yrange(4060513.713985924,4666109.814329013)
2019-06-17 19:41:44,149  INFO NetworkImpl:435 Building QuadTree took 0.02 seconds.
2019-06-17 19:41:44,213  INFO Counter:70 [PersonPrepareForSim] handled person # 1
2019-06-17 19:41:44,217  INFO Counter:70 [PersonPrepareForSim] handled person # 2
2019-06-17 19:41:44,217  INFO Counter:76 [PersonPrepareForSim] handled person # 2
2019-06-17 19:41:44,217  INFO Counter:70 [VehiclesImpl] added vehicle # 1
2019-06-17 19:41:44,217  INFO Counter:70 [VehiclesImpl] added vehicle # 2
2019-06-17 19:41:44,225  INFO AbstractController:123 ###################################################
2019-06-17 19:41:44,225  INFO AbstractController:124 ### ITERATION 0 BEGINS
2019-06-17 19:41:44,229  INFO ControlerListenerManagerImpl:145 calling notifyIterationStarts on org.matsim.analysis.LegHistogramListener
2019-06-17 19:41:44,229  INFO ControlerListenerManagerImpl:145 calling notifyIterationStarts on org.matsim.analysis.LinkStatsControlerListener
2019-06-17 19:41:44,229  INFO ControlerListenerManagerImpl:145 calling notifyIterationStarts on org.matsim.core.replanning.ReplanningContextImpl
2019-06-17 19:41:44,229  INFO ControlerListenerManagerImpl:145 calling notifyIterationStarts on org.matsim.core.scoring.ExperiencedPlansServiceImpl$1
2019-06-17 19:41:44,229  INFO ControlerListenerManagerImpl:145 calling notifyIterationStarts on org.matsim.core.scoring.ScoringFunctionsForPopulation$1
2019-06-17 19:41:44,253  INFO ControlerListenerManagerImpl:148 [it.0] all ControlerIterationStartsListeners called.
2019-06-17 19:41:44,253  INFO ControlerListenerManagerImpl:224 calling notifyBeforeMobsim on org.matsim.core.controler.corelisteners.EventsHandlingImpl
2019-06-17 19:41:44,253  INFO EventsManagerImpl:170 resetting Event-Handlers
2019-06-17 19:41:44,253  INFO EventsManagerImpl:177   org.matsim.core.trafficmonitoring.TravelTimeCalculator
2019-06-17 19:41:44,257  INFO EventsManagerImpl:177   org.matsim.core.scoring.EventsToLegsAndActivities
2019-06-17 19:41:44,257  INFO EventsManagerImpl:177   org.matsim.analysis.VolumesAnalyzer
2019-06-17 19:41:44,257  INFO EventsManagerImpl:177   org.matsim.core.events.algorithms.Vehicle2DriverEventHandler
2019-06-17 19:41:44,257  INFO EventsManagerImpl:177   org.matsim.core.scoring.ScoringFunctionsForPopulation
2019-06-17 19:41:44,257  INFO EventsManagerImpl:177   org.matsim.analysis.LegHistogram
2019-06-17 19:41:44,257  INFO EventsManagerImpl:177   org.matsim.analysis.CalcLegTimes
2019-06-17 19:41:44,261  INFO EventsManagerImpl:144 adding Event-Handler: org.matsim.core.events.algorithms.EventWriterXML
2019-06-17 19:41:44,261  INFO EventsManagerImpl:148   org.matsim.core.events.algorithms.EventWriter
2019-06-17 19:41:44,261  INFO EventsManagerImpl:148   org.matsim.core.events.handler.BasicEventHandler
2019-06-17 19:41:44,261  INFO EventsManagerImpl:207     > org.matsim.api.core.v01.events.Event
2019-06-17 19:41:44,261  INFO EventsManagerImpl:156 
2019-06-17 19:41:44,261  INFO EventsManagerImpl:144 adding Event-Handler: org.matsim.core.events.algorithms.EventWriterXML
2019-06-17 19:41:44,261  INFO EventsManagerImpl:148   org.matsim.core.events.algorithms.EventWriter
2019-06-17 19:41:44,261  INFO EventsManagerImpl:148   org.matsim.core.events.handler.BasicEventHandler
2019-06-17 19:41:44,261  INFO EventsManagerImpl:207     > org.matsim.api.core.v01.events.Event
2019-06-17 19:41:44,261  INFO EventsManagerImpl:156 
2019-06-17 19:41:44,261  INFO ControlerListenerManagerImpl:224 calling notifyBeforeMobsim on org.matsim.core.controler.corelisteners.PlansDumpingImpl
2019-06-17 19:41:44,261  INFO PlansDumpingImpl:76 dumping plans...
2019-06-17 19:41:44,273  INFO Counter:70 [PopulationWriter] dumped person # 1
2019-06-17 19:41:44,273  INFO Counter:70 [PopulationWriter] dumped person # 2
2019-06-17 19:41:44,273  INFO PopulationWriter:139 Population written to: test/output/de/tum/bgu/msm/transportModel/matsim/SiloMatsimTest/testMain//test_matsim_2000/ITERS/it.0/test_matsim_2000.0.plans.xml.gz
2019-06-17 19:41:44,273  INFO Counter:76 [PopulationWriter] dumped person # 2
2019-06-17 19:41:44,277  INFO PlansDumpingImpl:93 finished plans dump.
2019-06-17 19:41:44,277  INFO ControlerListenerManagerImpl:229 calling notifyBeforeMobsim on org.matsim.core.population.VspPlansCleaner
2019-06-17 19:41:44,277  INFO ControlerListenerManagerImpl:232 [it.0] all ControlerBeforeMobsimListeners called.
2019-06-17 19:41:44,289  INFO Counter:70 [PersonPrepareForSim] handled person # 1
2019-06-17 19:41:44,289  INFO Counter:70 [PersonPrepareForSim] handled person # 2
2019-06-17 19:41:44,289  INFO Counter:76 [PersonPrepareForSim] handled person # 2
2019-06-17 19:41:44,433  INFO MobsimListenerManager:49 calling addQueueSimulationListener
2019-06-17 19:41:44,433  INFO MobsimListenerManager:53   assigned class org.matsim.core.mobsim.framework.listeners.MobsimListener to interface org.matsim.vis.snapshotwriters.SnapshotWriterManager
2019-06-17 19:41:44,433  INFO MobsimListenerManager:53   assigned class org.matsim.core.mobsim.framework.listeners.MobsimListener to interface org.matsim.core.mobsim.framework.listeners.MobsimListener
2019-06-17 19:41:44,433  INFO MobsimListenerManager:53   assigned class org.matsim.core.mobsim.framework.listeners.MobsimListener to interface org.matsim.core.mobsim.framework.listeners.MobsimInitializedListener
2019-06-17 19:41:44,433  INFO MobsimListenerManager:53   assigned class org.matsim.core.mobsim.framework.listeners.MobsimListener to interface org.matsim.core.mobsim.framework.listeners.MobsimAfterSimStepListener
2019-06-17 19:41:44,433  INFO MobsimListenerManager:53   assigned class org.matsim.core.mobsim.framework.listeners.MobsimListener to interface org.matsim.core.mobsim.framework.listeners.MobsimBeforeCleanupListener
2019-06-17 19:41:44,529  INFO QSimProvider:111 Added MobsimEngine class org.matsim.core.mobsim.qsim.ActivityEngine
2019-06-17 19:41:44,529  INFO QSimProvider:117 Added Activityhandler class org.matsim.core.mobsim.qsim.ActivityEngine
2019-06-17 19:41:44,529  INFO QSimProvider:123 Added DepartureHandler class org.matsim.core.mobsim.qsim.qnetsimengine.VehicularDepartureHandler
2019-06-17 19:41:44,529  INFO QSimProvider:111 Added MobsimEngine class org.matsim.core.mobsim.qsim.qnetsimengine.QNetsimEngine
2019-06-17 19:41:44,529  INFO QSimProvider:111 Added MobsimEngine class org.matsim.core.mobsim.qsim.DefaultTeleportationEngine
2019-06-17 19:41:44,529  INFO QSimProvider:123 Added DepartureHandler class org.matsim.core.mobsim.qsim.DefaultTeleportationEngine
2019-06-17 19:41:44,529  INFO QSimProvider:129 Added AgentSource class org.matsim.core.mobsim.qsim.agents.PopulationAgentSource
2019-06-17 19:41:44,529  INFO MobsimListenerManager:49 calling addQueueSimulationListener
2019-06-17 19:41:44,529  INFO MobsimListenerManager:53   assigned class org.matsim.core.mobsim.framework.listeners.MobsimListener to interface org.matsim.core.mobsim.framework.listeners.MobsimListener
2019-06-17 19:41:44,529  INFO MobsimListenerManager:53   assigned class org.matsim.core.mobsim.framework.listeners.MobsimListener to interface org.matsim.core.mobsim.qsim.messagequeueengine.MessageQueueEngine
2019-06-17 19:41:44,529  INFO MobsimListenerManager:53   assigned class org.matsim.core.mobsim.framework.listeners.MobsimListener to interface org.matsim.core.mobsim.framework.listeners.MobsimBeforeSimStepListener
2019-06-17 19:41:44,529  INFO QSimProvider:135 Added MobsimListener class org.matsim.core.mobsim.qsim.messagequeueengine.MessageQueueEngine
2019-06-17 19:41:44,561  INFO QNetsimEngine:506 Assigned 9587 nodes and 11802 links to QSimEngineRunner #0
2019-06-17 19:41:44,565  INFO QNetsimEngine:346 SIMULATION (QNetsimEngine) AT 07:02:14 : #links=0 #nodes=0
2019-06-17 19:41:44,565  INFO QSim:505 SIMULATION (NEW QSim) AT 07:02:14 : #Veh=2 lost=0 simT=0.0s realT=0s; (s/r): 0.0
2019-06-17 19:41:44,565  INFO Gbl:58 used RAM: 188433672B = 184017kB = 179MB  free: 279755512B = 266MB  total: 468189184B = 446MB
2019-06-17 19:41:44,565  INFO EventsManagerImpl:134  event # 1
2019-06-17 19:41:44,573  INFO EventsManagerImpl:134  event # 4
2019-06-17 19:41:44,581  INFO EventsManagerImpl:134  event # 16
2019-06-17 19:41:44,653  INFO EventsManagerImpl:134  event # 64
2019-06-17 19:41:44,725  INFO QNetsimEngine:346 SIMULATION (QNetsimEngine) AT 08:00:00 : #links=6 #nodes=0
2019-06-17 19:41:44,729  INFO QSim:505 SIMULATION (NEW QSim) AT 08:00:00 : #Veh=2 lost=0 simT=3466.0s realT=0s; (s/r): Infinity
2019-06-17 19:41:44,729  INFO Gbl:58 used RAM: 190328264B = 185867kB = 181MB  free: 277860920B = 264MB  total: 468189184B = 446MB
2019-06-17 19:41:44,765  INFO EventsManagerImpl:134  event # 256
2019-06-17 19:41:44,833  INFO QNetsimEngine:346 SIMULATION (QNetsimEngine) AT 09:00:00 : #links=0 #nodes=0
2019-06-17 19:41:44,837  INFO QSim:505 SIMULATION (NEW QSim) AT 09:00:00 : #Veh=2 lost=0 simT=7066.0s realT=0s; (s/r): Infinity
2019-06-17 19:41:44,837  INFO Gbl:58 used RAM: 190328264B = 185867kB = 181MB  free: 277860920B = 264MB  total: 468189184B = 446MB
2019-06-17 19:41:44,977  INFO QNetsimEngine:346 SIMULATION (QNetsimEngine) AT 10:00:00 : #links=0 #nodes=0
2019-06-17 19:41:44,977  INFO QSim:505 SIMULATION (NEW QSim) AT 10:00:00 : #Veh=2 lost=0 simT=10666.0s realT=0s; (s/r): Infinity
2019-06-17 19:41:44,977  INFO Gbl:58 used RAM: 195225464B = 190649kB = 186MB  free: 272963720B = 260MB  total: 468189184B = 446MB
2019-06-17 19:41:45,145  INFO QNetsimEngine:346 SIMULATION (QNetsimEngine) AT 11:00:00 : #links=0 #nodes=0
2019-06-17 19:41:45,145  INFO QSim:505 SIMULATION (NEW QSim) AT 11:00:00 : #Veh=2 lost=0 simT=14266.0s realT=0s; (s/r): Infinity
2019-06-17 19:41:45,145  INFO Gbl:58 used RAM: 195225464B = 190649kB = 186MB  free: 272963720B = 260MB  total: 468189184B = 446MB
2019-06-17 19:41:45,301  INFO QNetsimEngine:346 SIMULATION (QNetsimEngine) AT 12:00:00 : #links=0 #nodes=0
2019-06-17 19:41:45,301  INFO QSim:505 SIMULATION (NEW QSim) AT 12:00:00 : #Veh=2 lost=0 simT=17866.0s realT=0s; (s/r): Infinity
2019-06-17 19:41:45,301  INFO Gbl:58 used RAM: 197119920B = 192499kB = 187MB  free: 271069264B = 258MB  total: 468189184B = 446MB
2019-06-17 19:41:45,473  INFO QNetsimEngine:346 SIMULATION (QNetsimEngine) AT 13:00:00 : #links=0 #nodes=0
2019-06-17 19:41:45,473  INFO QSim:505 SIMULATION (NEW QSim) AT 13:00:00 : #Veh=2 lost=0 simT=21466.0s realT=1s; (s/r): 21466.0
2019-06-17 19:41:45,473  INFO Gbl:58 used RAM: 203902192B = 199123kB = 194MB  free: 264286992B = 252MB  total: 468189184B = 446MB
2019-06-17 19:41:45,630  INFO QNetsimEngine:346 SIMULATION (QNetsimEngine) AT 14:00:00 : #links=0 #nodes=0
2019-06-17 19:41:45,630  INFO QSim:505 SIMULATION (NEW QSim) AT 14:00:00 : #Veh=2 lost=0 simT=25066.0s realT=1s; (s/r): 25066.0
2019-06-17 19:41:45,630  INFO Gbl:58 used RAM: 203902192B = 199123kB = 194MB  free: 264286992B = 252MB  total: 468189184B = 446MB
2019-06-17 19:41:45,786  INFO QNetsimEngine:346 SIMULATION (QNetsimEngine) AT 15:00:00 : #links=0 #nodes=0
2019-06-17 19:41:45,786  INFO QSim:505 SIMULATION (NEW QSim) AT 15:00:00 : #Veh=2 lost=0 simT=28666.0s realT=1s; (s/r): 28666.0
2019-06-17 19:41:45,786  INFO Gbl:58 used RAM: 203902192B = 199123kB = 194MB  free: 264286992B = 252MB  total: 468189184B = 446MB
2019-06-17 19:41:45,927  INFO Gbl:191 Thread performance: Thread=QNetsimEngineRunner_0  cpu-time=0.515625sec
2019-06-17 19:41:45,942  INFO Gbl:191 Thread performance: Thread=class org.matsim.core.events.SimStepParallelEventsManagerImpl$ProcessEventsRunnable0  cpu-time=0.34375sec
2019-06-17 19:41:45,942  INFO AbstractController$9:220 ### ITERATION 0 fires after mobsim event
2019-06-17 19:41:45,942  INFO ControlerListenerManagerImpl:248 calling notifyAfterMobsim on org.matsim.analysis.LegTimesControlerListener
2019-06-17 19:41:45,958  INFO LegTimesControlerListener:50 [0] average trip (probably: leg) duration is: 1185 seconds = 00:19:45
2019-06-17 19:41:45,958  INFO ControlerListenerManagerImpl:248 calling notifyAfterMobsim on org.matsim.core.scoring.EventsToActivities$1
2019-06-17 19:41:45,958  INFO ControlerListenerManagerImpl:251 [it.0] all ControlerAfterMobsimListeners called.
2019-06-17 19:41:45,958  INFO AbstractController$4:149 ### ITERATION 0 fires scoring event
2019-06-17 19:41:45,958  INFO ControlerListenerManagerImpl:183 calling notifyScoring on org.matsim.core.scoring.PlansScoringImpl
2019-06-17 19:41:45,958  INFO NewScoreAssignerImpl:36 it: 0 msaStart: null
2019-06-17 19:41:45,958  INFO ControlerListenerManagerImpl:194 [it.0] all ControlerScoringListeners called.
2019-06-17 19:41:45,958  INFO AbstractController$5:157 ### ITERATION 0 fires iteration end event
2019-06-17 19:41:45,958  INFO ControlerListenerManagerImpl:160 calling notifyIterationEnds on org.matsim.core.controler.corelisteners.EventsHandlingImpl
2019-06-17 19:41:45,958  INFO EventsManagerImpl:161 removing Event-Handler: org.matsim.core.events.algorithms.EventWriterXML
2019-06-17 19:41:45,958  INFO EventsManagerImpl:161 removing Event-Handler: org.matsim.core.events.algorithms.EventWriterXML
2019-06-17 19:41:45,958  INFO ControlerListenerManagerImpl:160 calling notifyIterationEnds on org.matsim.core.scoring.PlansScoringImpl
2019-06-17 19:41:45,958  INFO ControlerListenerManagerImpl:167 calling notifyIterationEnds on org.matsim.counts.CountsControlerListener
2019-06-17 19:41:45,958  INFO ControlerListenerManagerImpl:167 calling notifyIterationEnds on org.matsim.analysis.ModeStatsControlerListener
2019-06-17 19:41:45,958  INFO ModeStatsControlerListener:155 -- mode share of mode bike = 0.0
2019-06-17 19:41:45,958  INFO ModeStatsControlerListener:155 -- mode share of mode car = 1.0
2019-06-17 19:41:45,958  INFO ModeStatsControlerListener:155 -- mode share of mode other = 0.0
2019-06-17 19:41:45,958  INFO ModeStatsControlerListener:155 -- mode share of mode pt = 0.0
2019-06-17 19:41:45,958  INFO ModeStatsControlerListener:155 -- mode share of mode ride = 0.0
2019-06-17 19:41:45,958  INFO ModeStatsControlerListener:155 -- mode share of mode walk = 0.0
2019-06-17 19:41:45,958  INFO ControlerListenerManagerImpl:167 calling notifyIterationEnds on org.matsim.analysis.ScoreStatsControlerListener
2019-06-17 19:41:45,958  INFO ScoreStatsControlerListener:191 -- avg. score of the executed plan of each agent: 132.76668685500985
2019-06-17 19:41:45,958  INFO ScoreStatsControlerListener:192 -- avg. score of the worst plan of each agent: 132.76668685500985
2019-06-17 19:41:45,958  INFO ScoreStatsControlerListener:193 -- avg. of the avg. plan score per agent: 132.76668685500985
2019-06-17 19:41:45,958  INFO ScoreStatsControlerListener:194 -- avg. score of the best plan of each agent: 132.76668685500985
2019-06-17 19:41:45,958  INFO ControlerListenerManagerImpl:167 calling notifyIterationEnds on org.matsim.analysis.TravelDistanceStatsControlerListener
2019-06-17 19:41:45,958  INFO TravelDistanceStats:128 [TravelDistanceStats] using 1 thread(s).
2019-06-17 19:41:45,958  INFO TravelDistanceStats:141 [TravelDistanceStats] all threads finished.
2019-06-17 19:41:45,958  INFO TravelDistanceStats:161 -- average of the average leg distance per plan (executed plans only): 36659.69155823646
2019-06-17 19:41:45,958  INFO TravelDistanceStats:162 (TravelDistanceStats takes an average over all legs where the simulation reports travelled distances. These are car legs, pt legs,
2019-06-17 19:41:45,958  INFO TravelDistanceStats:163 (and teleported legs whose route contains a distance.)
2019-06-17 19:41:45,958  INFO ControlerListenerManagerImpl:167 calling notifyIterationEnds on org.matsim.analysis.LegHistogramListener
2019-06-17 19:41:45,973  INFO LegHistogramListener:72 number of legs:	4	100%
2019-06-17 19:41:45,973  INFO LegHistogramListener:79 number of car legs:	4	100.0%
2019-06-17 19:41:47,236  INFO ControlerListenerManagerImpl:167 calling notifyIterationEnds on org.matsim.analysis.LinkStatsControlerListener
2019-06-17 19:41:47,236  INFO ControlerListenerManagerImpl:171 [it.0] all ControlerIterationEndsListeners called.
2019-06-17 19:41:47,618  INFO AbstractController:167 ### ITERATION 0 ENDS
2019-06-17 19:41:47,618  INFO AbstractController:168 ###################################################
2019-06-17 19:41:47,618  INFO AbstractController:123 ###################################################
2019-06-17 19:41:47,618  INFO AbstractController:124 ### ITERATION 1 BEGINS
2019-06-17 19:41:47,618  INFO ControlerListenerManagerImpl:145 calling notifyIterationStarts on org.matsim.analysis.LegHistogramListener
2019-06-17 19:41:47,618  INFO ControlerListenerManagerImpl:145 calling notifyIterationStarts on org.matsim.analysis.LinkStatsControlerListener
2019-06-17 19:41:47,618  INFO ControlerListenerManagerImpl:145 calling notifyIterationStarts on org.matsim.core.replanning.ReplanningContextImpl
2019-06-17 19:41:47,634  INFO ControlerListenerManagerImpl:145 calling notifyIterationStarts on org.matsim.core.scoring.ExperiencedPlansServiceImpl$1
2019-06-17 19:41:47,634  INFO ControlerListenerManagerImpl:145 calling notifyIterationStarts on org.matsim.core.scoring.ScoringFunctionsForPopulation$1
2019-06-17 19:41:47,634  INFO ControlerListenerManagerImpl:148 [it.1] all ControlerIterationStartsListeners called.
2019-06-17 19:41:47,634  INFO ControlerListenerManagerImpl:205 calling notifyReplanning on org.matsim.core.controler.corelisteners.PlansReplanningImpl
2019-06-17 19:41:47,634  INFO GenericStrategyManager:159 RandomPlanSelector_ReRoute: oldWeight=0.2 newWeight=0.0
2019-06-17 19:41:47,634  WARN ExpBetaPlanChanger:86 Would make sense to revise this once more.  See comments in code.  kai, nov08
2019-06-17 19:41:47,634  INFO GenericPlanStrategyImpl:125 Plan-Strategy finished, 2 plans handled. Strategy: ExpBetaPlanChanger
2019-06-17 19:41:47,634  INFO AbstractMultithreadedModule:141 [PlanRouter] starting 1 threads, handling 0 plans
2019-06-17 19:41:47,634  INFO AbstractMultithreadedModule:156 [PlanRouter] all 1 threads finished.
2019-06-17 19:41:47,634  INFO GenericPlanStrategyImpl:125 Plan-Strategy finished, 0 plans handled. Strategy: RandomPlanSelector_ReRoute
2019-06-17 19:41:47,634  INFO ControlerListenerManagerImpl:213 [it.1] all ControlerReplanningListeners called.
2019-06-17 19:41:47,634  INFO ControlerListenerManagerImpl:224 calling notifyBeforeMobsim on org.matsim.core.controler.corelisteners.EventsHandlingImpl
2019-06-17 19:41:47,634  INFO EventsManagerImpl:170 resetting Event-Handlers
2019-06-17 19:41:47,634  INFO EventsManagerImpl:177   org.matsim.core.trafficmonitoring.TravelTimeCalculator
2019-06-17 19:41:47,634  INFO EventsManagerImpl:177   org.matsim.core.scoring.EventsToLegsAndActivities
2019-06-17 19:41:47,634  INFO EventsManagerImpl:177   org.matsim.analysis.VolumesAnalyzer
2019-06-17 19:41:47,634  INFO EventsManagerImpl:177   org.matsim.core.events.algorithms.Vehicle2DriverEventHandler
2019-06-17 19:41:47,634  INFO EventsManagerImpl:177   org.matsim.core.scoring.ScoringFunctionsForPopulation
2019-06-17 19:41:47,634  INFO EventsManagerImpl:177   org.matsim.analysis.LegHistogram
2019-06-17 19:41:47,634  INFO EventsManagerImpl:177   org.matsim.analysis.CalcLegTimes
2019-06-17 19:41:47,634  INFO EventsManagerImpl:144 adding Event-Handler: org.matsim.core.events.algorithms.EventWriterXML
2019-06-17 19:41:47,634  INFO EventsManagerImpl:148   org.matsim.core.events.algorithms.EventWriter
2019-06-17 19:41:47,634  INFO EventsManagerImpl:148   org.matsim.core.events.handler.BasicEventHandler
2019-06-17 19:41:47,634  INFO EventsManagerImpl:207     > org.matsim.api.core.v01.events.Event
2019-06-17 19:41:47,634  INFO EventsManagerImpl:156 
2019-06-17 19:41:47,634  INFO EventsManagerImpl:144 adding Event-Handler: org.matsim.core.events.algorithms.EventWriterXML
2019-06-17 19:41:47,634  INFO EventsManagerImpl:148   org.matsim.core.events.algorithms.EventWriter
2019-06-17 19:41:47,634  INFO EventsManagerImpl:148   org.matsim.core.events.handler.BasicEventHandler
2019-06-17 19:41:47,634  INFO EventsManagerImpl:207     > org.matsim.api.core.v01.events.Event
2019-06-17 19:41:47,634  INFO EventsManagerImpl:156 
2019-06-17 19:41:47,634  INFO ControlerListenerManagerImpl:224 calling notifyBeforeMobsim on org.matsim.core.controler.corelisteners.PlansDumpingImpl
2019-06-17 19:41:47,634  INFO PlansDumpingImpl:76 dumping plans...
2019-06-17 19:41:47,649  INFO Counter:70 [PopulationWriter] dumped person # 1
2019-06-17 19:41:47,649  INFO Counter:70 [PopulationWriter] dumped person # 2
2019-06-17 19:41:47,649  INFO PopulationWriter:139 Population written to: test/output/de/tum/bgu/msm/transportModel/matsim/SiloMatsimTest/testMain//test_matsim_2000/ITERS/it.1/test_matsim_2000.1.plans.xml.gz
2019-06-17 19:41:47,649  INFO Counter:76 [PopulationWriter] dumped person # 2
2019-06-17 19:41:47,649  INFO PlansDumpingImpl:93 finished plans dump.
2019-06-17 19:41:47,649  INFO ControlerListenerManagerImpl:229 calling notifyBeforeMobsim on org.matsim.core.population.VspPlansCleaner
2019-06-17 19:41:47,649  INFO ControlerListenerManagerImpl:232 [it.1] all ControlerBeforeMobsimListeners called.
2019-06-17 19:41:47,649  INFO Counter:70 [PersonPrepareForSim] handled person # 1
2019-06-17 19:41:47,649  INFO Counter:70 [PersonPrepareForSim] handled person # 2
2019-06-17 19:41:47,649  INFO Counter:76 [PersonPrepareForSim] handled person # 2
2019-06-17 19:41:47,681  INFO MobsimListenerManager:49 calling addQueueSimulationListener
2019-06-17 19:41:47,681  INFO MobsimListenerManager:53   assigned class org.matsim.core.mobsim.framework.listeners.MobsimListener to interface org.matsim.vis.snapshotwriters.SnapshotWriterManager
2019-06-17 19:41:47,681  INFO MobsimListenerManager:53   assigned class org.matsim.core.mobsim.framework.listeners.MobsimListener to interface org.matsim.core.mobsim.framework.listeners.MobsimListener
2019-06-17 19:41:47,681  INFO MobsimListenerManager:53   assigned class org.matsim.core.mobsim.framework.listeners.MobsimListener to interface org.matsim.core.mobsim.framework.listeners.MobsimInitializedListener
2019-06-17 19:41:47,681  INFO MobsimListenerManager:53   assigned class org.matsim.core.mobsim.framework.listeners.MobsimListener to interface org.matsim.core.mobsim.framework.listeners.MobsimAfterSimStepListener
2019-06-17 19:41:47,681  INFO MobsimListenerManager:53   assigned class org.matsim.core.mobsim.framework.listeners.MobsimListener to interface org.matsim.core.mobsim.framework.listeners.MobsimBeforeCleanupListener
2019-06-17 19:41:47,712  INFO QSimProvider:111 Added MobsimEngine class org.matsim.core.mobsim.qsim.ActivityEngine
2019-06-17 19:41:47,712  INFO QSimProvider:117 Added Activityhandler class org.matsim.core.mobsim.qsim.ActivityEngine
2019-06-17 19:41:47,712  INFO QSimProvider:123 Added DepartureHandler class org.matsim.core.mobsim.qsim.qnetsimengine.VehicularDepartureHandler
2019-06-17 19:41:47,712  INFO QSimProvider:111 Added MobsimEngine class org.matsim.core.mobsim.qsim.qnetsimengine.QNetsimEngine
2019-06-17 19:41:47,712  INFO QSimProvider:111 Added MobsimEngine class org.matsim.core.mobsim.qsim.DefaultTeleportationEngine
2019-06-17 19:41:47,712  INFO QSimProvider:123 Added DepartureHandler class org.matsim.core.mobsim.qsim.DefaultTeleportationEngine
2019-06-17 19:41:47,712  INFO QSimProvider:129 Added AgentSource class org.matsim.core.mobsim.qsim.agents.PopulationAgentSource
2019-06-17 19:41:47,712  INFO MobsimListenerManager:49 calling addQueueSimulationListener
2019-06-17 19:41:47,712  INFO MobsimListenerManager:53   assigned class org.matsim.core.mobsim.framework.listeners.MobsimListener to interface org.matsim.core.mobsim.framework.listeners.MobsimListener
2019-06-17 19:41:47,712  INFO MobsimListenerManager:53   assigned class org.matsim.core.mobsim.framework.listeners.MobsimListener to interface org.matsim.core.mobsim.qsim.messagequeueengine.MessageQueueEngine
2019-06-17 19:41:47,712  INFO MobsimListenerManager:53   assigned class org.matsim.core.mobsim.framework.listeners.MobsimListener to interface org.matsim.core.mobsim.framework.listeners.MobsimBeforeSimStepListener
2019-06-17 19:41:47,712  INFO QSimProvider:135 Added MobsimListener class org.matsim.core.mobsim.qsim.messagequeueengine.MessageQueueEngine
2019-06-17 19:41:47,727  INFO QNetsimEngine:506 Assigned 9587 nodes and 11802 links to QSimEngineRunner #0
2019-06-17 19:41:47,727  INFO QNetsimEngine:346 SIMULATION (QNetsimEngine) AT 07:02:14 : #links=0 #nodes=0
2019-06-17 19:41:47,727  INFO QSim:505 SIMULATION (NEW QSim) AT 07:02:14 : #Veh=2 lost=0 simT=0.0s realT=0s; (s/r): 0.0
2019-06-17 19:41:47,743  INFO Gbl:58 used RAM: 215251208B = 210206kB = 205MB  free: 385058552B = 367MB  total: 600309760B = 572MB
2019-06-17 19:41:47,899  INFO QNetsimEngine:346 SIMULATION (QNetsimEngine) AT 08:00:00 : #links=6 #nodes=0
2019-06-17 19:41:47,899  INFO QSim:505 SIMULATION (NEW QSim) AT 08:00:00 : #Veh=2 lost=0 simT=3466.0s realT=0s; (s/r): Infinity
2019-06-17 19:41:47,899  INFO Gbl:58 used RAM: 217145648B = 212056kB = 207MB  free: 383164112B = 365MB  total: 600309760B = 572MB
2019-06-17 19:41:48,084  INFO QNetsimEngine:346 SIMULATION (QNetsimEngine) AT 09:00:00 : #links=0 #nodes=0
2019-06-17 19:41:48,084  INFO QSim:505 SIMULATION (NEW QSim) AT 09:00:00 : #Veh=2 lost=0 simT=7066.0s realT=0s; (s/r): Infinity
2019-06-17 19:41:48,084  INFO Gbl:58 used RAM: 217145648B = 212056kB = 207MB  free: 383164112B = 365MB  total: 600309760B = 572MB
2019-06-17 19:41:48,236  INFO QNetsimEngine:346 SIMULATION (QNetsimEngine) AT 10:00:00 : #links=0 #nodes=0
2019-06-17 19:41:48,236  INFO QSim:505 SIMULATION (NEW QSim) AT 10:00:00 : #Veh=2 lost=0 simT=10666.0s realT=0s; (s/r): Infinity
2019-06-17 19:41:48,236  INFO Gbl:58 used RAM: 217145648B = 212056kB = 207MB  free: 383164112B = 365MB  total: 600309760B = 572MB
2019-06-17 19:41:48,392  INFO QNetsimEngine:346 SIMULATION (QNetsimEngine) AT 11:00:00 : #links=0 #nodes=0
2019-06-17 19:41:48,392  INFO QSim:505 SIMULATION (NEW QSim) AT 11:00:00 : #Veh=2 lost=0 simT=14266.0s realT=0s; (s/r): Infinity
2019-06-17 19:41:48,392  INFO Gbl:58 used RAM: 222033392B = 216829kB = 211MB  free: 378276368B = 360MB  total: 600309760B = 572MB
2019-06-17 19:41:48,592  INFO QNetsimEngine:346 SIMULATION (QNetsimEngine) AT 12:00:00 : #links=0 #nodes=0
2019-06-17 19:41:48,592  INFO QSim:505 SIMULATION (NEW QSim) AT 12:00:00 : #Veh=2 lost=0 simT=17866.0s realT=0s; (s/r): Infinity
2019-06-17 19:41:48,592  INFO Gbl:58 used RAM: 223927848B = 218679kB = 213MB  free: 376381912B = 358MB  total: 600309760B = 572MB
2019-06-17 19:41:48,768  INFO QNetsimEngine:346 SIMULATION (QNetsimEngine) AT 13:00:00 : #links=0 #nodes=0
2019-06-17 19:41:48,768  INFO QSim:505 SIMULATION (NEW QSim) AT 13:00:00 : #Veh=2 lost=0 simT=21466.0s realT=1s; (s/r): 21466.0
2019-06-17 19:41:48,768  INFO Gbl:58 used RAM: 223927848B = 218679kB = 213MB  free: 376381912B = 358MB  total: 600309760B = 572MB
2019-06-17 19:41:48,956  INFO QNetsimEngine:346 SIMULATION (QNetsimEngine) AT 14:00:00 : #links=0 #nodes=0
2019-06-17 19:41:48,956  INFO QSim:505 SIMULATION (NEW QSim) AT 14:00:00 : #Veh=2 lost=0 simT=25066.0s realT=1s; (s/r): 25066.0
2019-06-17 19:41:48,956  INFO Gbl:58 used RAM: 223927848B = 218679kB = 213MB  free: 376381912B = 358MB  total: 600309760B = 572MB
2019-06-17 19:41:49,144  INFO QNetsimEngine:346 SIMULATION (QNetsimEngine) AT 15:00:00 : #links=0 #nodes=0
2019-06-17 19:41:49,144  INFO QSim:505 SIMULATION (NEW QSim) AT 15:00:00 : #Veh=2 lost=0 simT=28666.0s realT=1s; (s/r): 28666.0
2019-06-17 19:41:49,144  INFO Gbl:58 used RAM: 230710032B = 225302kB = 220MB  free: 369599728B = 352MB  total: 600309760B = 572MB
2019-06-17 19:41:49,238  INFO EventsManagerImpl:134  event # 1024
2019-06-17 19:41:49,285  INFO Gbl:191 Thread performance: Thread=QNetsimEngineRunner_0  cpu-time=0.5sec
2019-06-17 19:41:49,285  INFO Gbl:191 Thread performance: Thread=class org.matsim.core.events.SimStepParallelEventsManagerImpl$ProcessEventsRunnable0  cpu-time=0.28125sec
2019-06-17 19:41:49,285  INFO AbstractController$9:220 ### ITERATION 1 fires after mobsim event
2019-06-17 19:41:49,285  INFO ControlerListenerManagerImpl:248 calling notifyAfterMobsim on org.matsim.analysis.LegTimesControlerListener
2019-06-17 19:41:49,301  INFO LegTimesControlerListener:50 [1] average trip (probably: leg) duration is: 1185 seconds = 00:19:45
2019-06-17 19:41:49,301  INFO ControlerListenerManagerImpl:248 calling notifyAfterMobsim on org.matsim.core.scoring.EventsToActivities$1
2019-06-17 19:41:49,301  INFO ControlerListenerManagerImpl:251 [it.1] all ControlerAfterMobsimListeners called.
2019-06-17 19:41:49,301  INFO AbstractController$4:149 ### ITERATION 1 fires scoring event
2019-06-17 19:41:49,301  INFO ControlerListenerManagerImpl:183 calling notifyScoring on org.matsim.core.scoring.PlansScoringImpl
2019-06-17 19:41:49,301  INFO NewScoreAssignerImpl:36 it: 1 msaStart: null
2019-06-17 19:41:49,301  INFO ControlerListenerManagerImpl:194 [it.1] all ControlerScoringListeners called.
2019-06-17 19:41:49,301  INFO AbstractController$5:157 ### ITERATION 1 fires iteration end event
2019-06-17 19:41:49,301  INFO ControlerListenerManagerImpl:160 calling notifyIterationEnds on org.matsim.core.controler.corelisteners.EventsHandlingImpl
2019-06-17 19:41:49,301  INFO EventsManagerImpl:161 removing Event-Handler: org.matsim.core.events.algorithms.EventWriterXML
2019-06-17 19:41:49,301  INFO EventsManagerImpl:161 removing Event-Handler: org.matsim.core.events.algorithms.EventWriterXML
2019-06-17 19:41:49,301  INFO ControlerListenerManagerImpl:160 calling notifyIterationEnds on org.matsim.core.scoring.PlansScoringImpl
2019-06-17 19:41:49,301  INFO ControlerListenerManagerImpl:167 calling notifyIterationEnds on org.matsim.counts.CountsControlerListener
2019-06-17 19:41:49,301  INFO ControlerListenerManagerImpl:167 calling notifyIterationEnds on org.matsim.analysis.ModeStatsControlerListener
2019-06-17 19:41:49,301  INFO ModeStatsControlerListener:155 -- mode share of mode bike = 0.0
2019-06-17 19:41:49,301  INFO ModeStatsControlerListener:155 -- mode share of mode car = 1.0
2019-06-17 19:41:49,301  INFO ModeStatsControlerListener:155 -- mode share of mode other = 0.0
2019-06-17 19:41:49,301  INFO ModeStatsControlerListener:155 -- mode share of mode pt = 0.0
2019-06-17 19:41:49,301  INFO ModeStatsControlerListener:155 -- mode share of mode ride = 0.0
2019-06-17 19:41:49,301  INFO ModeStatsControlerListener:155 -- mode share of mode walk = 0.0
2019-06-17 19:41:49,520  INFO ControlerListenerManagerImpl:167 calling notifyIterationEnds on org.matsim.analysis.ScoreStatsControlerListener
2019-06-17 19:41:49,520  INFO ScoreStatsControlerListener:191 -- avg. score of the executed plan of each agent: 132.76668685500985
2019-06-17 19:41:49,520  INFO ScoreStatsControlerListener:192 -- avg. score of the worst plan of each agent: 132.76668685500985
2019-06-17 19:41:49,520  INFO ScoreStatsControlerListener:193 -- avg. of the avg. plan score per agent: 132.76668685500985
2019-06-17 19:41:49,520  INFO ScoreStatsControlerListener:194 -- avg. score of the best plan of each agent: 132.76668685500985
2019-06-17 19:41:49,723  INFO ControlerListenerManagerImpl:167 calling notifyIterationEnds on org.matsim.analysis.TravelDistanceStatsControlerListener
2019-06-17 19:41:49,723  INFO TravelDistanceStats:128 [TravelDistanceStats] using 1 thread(s).
2019-06-17 19:41:49,723  INFO TravelDistanceStats:141 [TravelDistanceStats] all threads finished.
2019-06-17 19:41:49,723  INFO TravelDistanceStats:161 -- average of the average leg distance per plan (executed plans only): 36659.69155823646
2019-06-17 19:41:49,723  INFO TravelDistanceStats:162 (TravelDistanceStats takes an average over all legs where the simulation reports travelled distances. These are car legs, pt legs,
2019-06-17 19:41:49,723  INFO TravelDistanceStats:163 (and teleported legs whose route contains a distance.)
2019-06-17 19:41:49,910  INFO ControlerListenerManagerImpl:167 calling notifyIterationEnds on org.matsim.analysis.LegHistogramListener
2019-06-17 19:41:49,910  INFO LegHistogramListener:72 number of legs:	4	100%
2019-06-17 19:41:49,910  INFO LegHistogramListener:79 number of car legs:	4	100.0%
2019-06-17 19:41:50,536  INFO ControlerListenerManagerImpl:167 calling notifyIterationEnds on org.matsim.analysis.LinkStatsControlerListener
2019-06-17 19:41:50,536  INFO ControlerListenerManagerImpl:171 [it.1] all ControlerIterationEndsListeners called.
2019-06-17 19:41:50,848  INFO AbstractController:167 ### ITERATION 1 ENDS
2019-06-17 19:41:50,848  INFO AbstractController:168 ###################################################
2019-06-17 19:41:50,848  INFO MatsimRuntimeModifications:58 S H U T D O W N   ---   start shutdown.
2019-06-17 19:41:50,848  INFO ControlerListenerManagerImpl:121 calling notifyShutdown on org.matsim.core.controler.corelisteners.EventsHandlingImpl
2019-06-17 19:41:50,848  INFO ControlerListenerManagerImpl:121 calling notifyShutdown on org.matsim.core.controler.corelisteners.DumpDataAtEndImpl
2019-06-17 19:41:50,848  INFO Counter:70 [PopulationWriter] dumped person # 1
2019-06-17 19:41:50,848  INFO Counter:70 [PopulationWriter] dumped person # 2
2019-06-17 19:41:50,852  INFO PopulationWriter:139 Population written to: test/output/de/tum/bgu/msm/transportModel/matsim/SiloMatsimTest/testMain//test_matsim_2000/test_matsim_2000.output_plans.xml.gz
2019-06-17 19:41:50,852  INFO Counter:76 [PopulationWriter] dumped person # 2
2019-06-17 19:41:50,856  INFO NetworkWriter:69 Writing network to file: test/output/de/tum/bgu/msm/transportModel/matsim/SiloMatsimTest/testMain//test_matsim_2000/test_matsim_2000.output_network.xml.gz...
2019-06-17 19:41:51,195  INFO NetworkWriter:72 done.
2019-06-17 19:41:51,195  INFO Config:572 setting context to [file:/C:/Users/nkueh/IdeaProjects/silo-parent/useCases/maryland/]
2019-06-17 19:41:51,210  INFO Config:572 setting context to [file:/C:/Users/nkueh/IdeaProjects/silo-parent/useCases/maryland/]
2019-06-17 19:41:51,210  INFO Config:572 setting context to [file:/C:/Users/nkueh/IdeaProjects/silo-parent/useCases/maryland/]
2019-06-17 19:41:51,226  INFO Config:572 setting context to [file:/C:/Users/nkueh/IdeaProjects/silo-parent/useCases/maryland/]
2019-06-17 19:41:51,241  INFO Config:572 setting context to [file:/C:/Users/nkueh/IdeaProjects/silo-parent/useCases/maryland/]
2019-06-17 19:41:51,241  INFO Config:572 setting context to [file:/C:/Users/nkueh/IdeaProjects/silo-parent/useCases/maryland/]
2019-06-17 19:41:51,241  INFO Config:572 setting context to [file:/C:/Users/nkueh/IdeaProjects/silo-parent/useCases/maryland/]
2019-06-17 19:41:51,257  INFO Config:572 setting context to [file:/C:/Users/nkueh/IdeaProjects/silo-parent/useCases/maryland/]
2019-06-17 19:41:51,257  INFO Config:572 setting context to [file:/C:/Users/nkueh/IdeaProjects/silo-parent/useCases/maryland/]
2019-06-17 19:41:51,273  INFO Config:572 setting context to [file:/C:/Users/nkueh/IdeaProjects/silo-parent/useCases/maryland/]
2019-06-17 19:41:51,273  INFO Config:572 setting context to [file:/C:/Users/nkueh/IdeaProjects/silo-parent/useCases/maryland/]
2019-06-17 19:41:51,288  INFO Config:572 setting context to [file:/C:/Users/nkueh/IdeaProjects/silo-parent/useCases/maryland/]
2019-06-17 19:41:51,288  INFO Config:572 setting context to [file:/C:/Users/nkueh/IdeaProjects/silo-parent/useCases/maryland/]
2019-06-17 19:41:51,304  INFO Config:572 setting context to [file:/C:/Users/nkueh/IdeaProjects/silo-parent/useCases/maryland/]
2019-06-17 19:41:51,304  INFO Config:572 setting context to [file:/C:/Users/nkueh/IdeaProjects/silo-parent/useCases/maryland/]
2019-06-17 19:41:51,320  INFO Config:572 setting context to [file:/C:/Users/nkueh/IdeaProjects/silo-parent/useCases/maryland/]
2019-06-17 19:41:51,335  INFO Config:572 setting context to [file:/C:/Users/nkueh/IdeaProjects/silo-parent/useCases/maryland/]
2019-06-17 19:41:51,335  INFO Config:572 setting context to [file:/C:/Users/nkueh/IdeaProjects/silo-parent/useCases/maryland/]
2019-06-17 19:41:51,351  INFO Config:572 setting context to [file:/C:/Users/nkueh/IdeaProjects/silo-parent/useCases/maryland/]
2019-06-17 19:41:51,351  INFO Config:572 setting context to [file:/C:/Users/nkueh/IdeaProjects/silo-parent/useCases/maryland/]
2019-06-17 19:41:51,351  INFO Config:572 setting context to [file:/C:/Users/nkueh/IdeaProjects/silo-parent/useCases/maryland/]
2019-06-17 19:41:51,366  INFO Config:572 setting context to [file:/C:/Users/nkueh/IdeaProjects/silo-parent/useCases/maryland/]
2019-06-17 19:41:51,366  INFO Config:572 setting context to [file:/C:/Users/nkueh/IdeaProjects/silo-parent/useCases/maryland/]
2019-06-17 19:41:51,366  INFO Config:572 setting context to [file:/C:/Users/nkueh/IdeaProjects/silo-parent/useCases/maryland/]
2019-06-17 19:41:51,382  INFO VehicleWriterV1:52 about to write vehicles to: test/output/de/tum/bgu/msm/transportModel/matsim/SiloMatsimTest/testMain//test_matsim_2000/test_matsim_2000.output_vehicles.xml.gz
2019-06-17 19:41:51,398  INFO HouseholdsWriterV10:66 about to write  households to: test/output/de/tum/bgu/msm/transportModel/matsim/SiloMatsimTest/testMain//test_matsim_2000/test_matsim_2000.output_households.xml.gz
2019-06-17 19:41:51,398  INFO Counter:76 [HouseholdsWriter] wrote household # 0
2019-06-17 19:41:51,398  INFO LanesWriter:72 about to write lanes to: test/output/de/tum/bgu/msm/transportModel/matsim/SiloMatsimTest/testMain//test_matsim_2000/test_matsim_2000.output_lanes.xml.gz
2019-06-17 19:41:51,804  INFO ControlerListenerManagerImpl:126 calling notifyShutdown on org.matsim.analysis.ModeStatsControlerListener
2019-06-17 19:41:51,804  INFO ControlerListenerManagerImpl:126 calling notifyShutdown on org.matsim.analysis.ScoreStatsControlerListener
2019-06-17 19:41:51,804  INFO ControlerListenerManagerImpl:126 calling notifyShutdown on org.matsim.analysis.TravelDistanceStatsControlerListener
2019-06-17 19:41:51,804  INFO ControlerListenerManagerImpl:129 all ControlerShutdownListeners called.
2019-06-17 19:41:51,804  INFO MatsimRuntimeModifications:81 S H U T D O W N   ---   shutdown completed.
2019-06-17 19:41:51,804  INFO OutputDirectoryLogging:146 closing the logfile, i.e. messages sent to the logger after this message are not written to the logfile.
